data_CpFeIRCOF102_sym_BULK_OPTGEOM_DZ_optimized

_cell_length_a    37.301713
_cell_length_b    37.301713
_cell_length_c    37.301713
_cell_angle_alpha 109.471221
_cell_angle_beta  109.471221
_cell_angle_gamma 109.471221

_symmetry_space_group_name_H-M  'P 1'
_symmetry_Int_Tables_number     1

loop_
_symmetry_equiv_pos_as_xyz
  'x, y, z'

loop_
_atom_site_label
_atom_site_type_symbol
_atom_site_fract_x
_atom_site_fract_y
_atom_site_fract_z
H1       H      0.455837    -0.215803    -0.029890
H2       H      0.314087     0.485726    -0.470110
H3       H      0.044163     0.014274     0.328361
H4       H      0.185913    -0.284197     0.171639
H5       H     -0.029890     0.455837    -0.215803
H6       H     -0.215803    -0.029890     0.455837
H7       H      0.171639     0.185913    -0.284197
H8       H      0.485726    -0.470110     0.314087
H9       H     -0.470110     0.314087     0.485726
H10      H      0.014274     0.328361     0.044163
H11      H      0.328361     0.044163     0.014274
H12      H     -0.284197     0.171639     0.185913
H13      H      0.284197    -0.044163     0.470110
H14      H     -0.014274    -0.185913     0.029890
H15      H     -0.485726    -0.455837    -0.171639
H16      H      0.215803    -0.314087    -0.328361
H17      H     -0.044163     0.470110     0.284197
H18      H      0.470110     0.284197    -0.044163
H19      H     -0.314087    -0.328361     0.215803
H20      H      0.029890    -0.014274    -0.185913
H21      H     -0.185913     0.029890    -0.014274
H22      H     -0.171639    -0.485726    -0.455837
H23      H     -0.455837    -0.171639    -0.485726
H24      H     -0.328361     0.215803    -0.314087
H25      H     -0.417000    -0.121233    -0.001794
H26      H      0.380561    -0.415206    -0.498206
H27      H     -0.083000    -0.084794     0.295767
H28      H      0.119439    -0.378767     0.204233
H29      H     -0.001794    -0.417000    -0.121233
H30      H     -0.121233    -0.001794    -0.417000
H31      H      0.204233     0.119439    -0.378767
H32      H     -0.415206    -0.498206     0.380561
H33      H     -0.498206     0.380561    -0.415206
H34      H     -0.084794     0.295767    -0.083000
H35      H      0.295767    -0.083000    -0.084794
H36      H     -0.378767     0.204233     0.119439
H37      H      0.378767     0.083000     0.498206
H38      H      0.084794    -0.119439     0.001794
H39      H      0.415206     0.417000    -0.204233
H40      H      0.121233    -0.380561    -0.295767
H41      H      0.083000     0.498206     0.378767
H42      H      0.498206     0.378767     0.083000
H43      H     -0.380561    -0.295767     0.121233
H44      H      0.001794     0.084794    -0.119439
H45      H     -0.119439     0.001794     0.084794
H46      H     -0.204233     0.415206     0.417000
H47      H      0.417000    -0.204233     0.415206
H48      H     -0.295767     0.121233    -0.380561
H49      H     -0.469916    -0.086618    -0.011904
H50      H      0.425285    -0.458012    -0.488096
H51      H     -0.030084    -0.041988     0.383297
H52      H      0.074715    -0.413382     0.116703
H53      H     -0.011904    -0.469916    -0.086618
H54      H     -0.086618    -0.011904    -0.469916
H55      H      0.116703     0.074715    -0.413382
H56      H     -0.458012    -0.488096     0.425285
H57      H     -0.488096     0.425285    -0.458012
H58      H     -0.041988     0.383297    -0.030084
H59      H      0.383297    -0.030084    -0.041988
H60      H     -0.413382     0.116703     0.074715
H61      H      0.413382     0.030084     0.488096
H62      H      0.041988    -0.074715     0.011904
H63      H      0.458012     0.469916    -0.116703
H64      H      0.086618    -0.425285    -0.383297
H65      H      0.030084     0.488096     0.413382
H66      H      0.488096     0.413382     0.030084
H67      H     -0.425285    -0.383297     0.086618
H68      H      0.011904     0.041988    -0.074715
H69      H     -0.074715     0.011904     0.041988
H70      H     -0.116703     0.458012     0.469916
H71      H      0.469916    -0.116703     0.458012
H72      H     -0.383297     0.086618    -0.425285
H73      H     -0.463188    -0.201820    -0.013532
H74      H      0.311712    -0.449657    -0.486468
H75      H     -0.036812    -0.050343     0.261368
H76      H      0.188288    -0.298180     0.238632
H77      H     -0.013532    -0.463188    -0.201820
H78      H     -0.201820    -0.013532    -0.463188
H79      H      0.238632     0.188288    -0.298180
H80      H     -0.449657    -0.486468     0.311712
H81      H     -0.486468     0.311712    -0.449657
H82      H     -0.050343     0.261368    -0.036812
H83      H      0.261368    -0.036812    -0.050343
H84      H     -0.298180     0.238632     0.188288
H85      H      0.298180     0.036812     0.486468
H86      H      0.050343    -0.188288     0.013532
H87      H      0.449657     0.463188    -0.238632
H88      H      0.201820    -0.311712    -0.261368
H89      H      0.036812     0.486468     0.298180
H90      H      0.486468     0.298180     0.036812
H91      H     -0.311712    -0.261368     0.201820
H92      H      0.013532     0.050343    -0.188288
H93      H     -0.188288     0.013532     0.050343
H94      H     -0.238632     0.449657     0.463188
H95      H      0.463188    -0.238632     0.449657
H96      H     -0.261368     0.201820    -0.311712
C1       C      0.481525    -0.187420    -0.025673
C2       C      0.338253    -0.492801    -0.474327
C3       C      0.018475    -0.007199     0.331054
C4       C      0.161747    -0.312580     0.168946
C5       C     -0.025673     0.481525    -0.187420
C6       C     -0.187420    -0.025673     0.481525
C7       C      0.168946     0.161747    -0.312580
C8       C     -0.492801    -0.474327     0.338253
C9       C     -0.474327     0.338253    -0.492801
C10      C     -0.007199     0.331054     0.018475
C11      C      0.331054     0.018475    -0.007199
C12      C     -0.312580     0.168946     0.161747
C13      C      0.312580    -0.018475     0.474327
C14      C      0.007199    -0.161747     0.025673
C15      C      0.492801    -0.481525    -0.168946
C16      C      0.187420    -0.338253    -0.331054
C17      C     -0.018475     0.474327     0.312580
C18      C      0.474327     0.312580    -0.018475
C19      C     -0.338253    -0.331054     0.187420
C20      C      0.025673     0.007199    -0.161747
C21      C     -0.161747     0.025673     0.007199
C22      C     -0.168946     0.492801    -0.481525
C23      C     -0.481525    -0.168946     0.492801
C24      C     -0.331054     0.187420    -0.338253
C25      C      0.478869    -0.150358    -0.026451
C26      C      0.376093    -0.494681    -0.473549
C27      C      0.021131    -0.005319     0.370773
C28      C      0.123907    -0.349642     0.129227
C29      C     -0.026451     0.478869    -0.150358
C30      C     -0.150358    -0.026451     0.478869
C31      C      0.129227     0.123907    -0.349642
C32      C     -0.494681    -0.473549     0.376093
C33      C     -0.473549     0.376093    -0.494681
C34      C     -0.005319     0.370773     0.021131
C35      C      0.370773     0.021131    -0.005319
C36      C     -0.349642     0.129227     0.123907
C37      C      0.349642    -0.021131     0.473549
C38      C      0.005319    -0.123907     0.026451
C39      C      0.494681    -0.478869    -0.129227
C40      C      0.150358    -0.376093    -0.370773
C41      C     -0.021131     0.473549     0.349642
C42      C      0.473549     0.349642    -0.021131
C43      C     -0.376093    -0.370773     0.150358
C44      C      0.026451     0.005319    -0.123907
C45      C     -0.123907     0.026451     0.005319
C46      C     -0.129227     0.494681    -0.478869
C47      C     -0.478869    -0.129227     0.494681
C48      C     -0.370773     0.150358    -0.376093
C49      C     -0.475508    -0.179847    -0.016753
C50      C      0.336906    -0.458755    -0.483247
C51      C     -0.024492    -0.041245     0.295661
C52      C      0.163094    -0.320153     0.204339
C53      C     -0.016753    -0.475508    -0.179847
C54      C     -0.179847    -0.016753    -0.475508
C55      C      0.204339     0.163094    -0.320153
C56      C     -0.458755    -0.483247     0.336906
C57      C     -0.483247     0.336906    -0.458755
C58      C     -0.041245     0.295661    -0.024492
C59      C      0.295661    -0.024492    -0.041245
C60      C     -0.320153     0.204339     0.163094
C61      C      0.320153     0.024492     0.483247
C62      C      0.041245    -0.163094     0.016753
C63      C      0.458755     0.475508    -0.204339
C64      C      0.179847    -0.336906    -0.295661
C65      C      0.024492     0.483247     0.320153
C66      C      0.483247     0.320153     0.024492
C67      C     -0.336906    -0.295661     0.179847
C68      C      0.016753     0.041245    -0.163094
C69      C     -0.163094     0.016753     0.041245
C70      C     -0.204339     0.458755     0.475508
C71      C      0.475508    -0.204339     0.458755
C72      C     -0.295661     0.179847    -0.336906
Fe1      Fe    -0.472565    -0.131781     0.032228
Fe2      Fe     0.335991     0.495207     0.467772
Fe3      Fe    -0.027435     0.004793     0.340784
Fe4      Fe     0.164009    -0.368219     0.159216
Fe5      Fe     0.032228    -0.472565    -0.131781
Fe6      Fe    -0.131781     0.032228    -0.472565
Fe7      Fe     0.159216     0.164009    -0.368219
Fe8      Fe     0.495207     0.467772     0.335991
Fe9      Fe     0.467772     0.335991     0.495207
Fe10     Fe     0.004793     0.340784    -0.027435
Fe11     Fe     0.340784    -0.027435     0.004793
Fe12     Fe    -0.368219     0.159216     0.164009
Fe13     Fe     0.368219     0.027435    -0.467772
Fe14     Fe    -0.004793    -0.164009    -0.032228
Fe15     Fe    -0.495207     0.472565    -0.159216
Fe16     Fe     0.131781    -0.335991    -0.340784
Fe17     Fe     0.027435    -0.467772     0.368219
Fe18     Fe    -0.467772     0.368219     0.027435
Fe19     Fe    -0.335991    -0.340784     0.131781
Fe20     Fe    -0.032228    -0.004793    -0.164009
Fe21     Fe    -0.164009    -0.032228    -0.004793
Fe22     Fe    -0.159216    -0.495207     0.472565
Fe23     Fe     0.472565    -0.159216    -0.495207
Fe24     Fe    -0.340784     0.131781    -0.335991
H97      H      0.480495    -0.102431     0.066573
H98      H      0.330997     0.413922     0.433427
H99      H      0.019505     0.086078     0.417074
H100     H      0.169003    -0.397569     0.082926
H101     H      0.066573     0.480495    -0.102431
H102     H     -0.102431     0.066573     0.480495
H103     H      0.082926     0.169003    -0.397569
H104     H      0.413922     0.433427     0.330997
H105     H      0.433427     0.330997     0.413922
H106     H      0.086078     0.417074     0.019505
H107     H      0.417074     0.019505     0.086078
H108     H     -0.397569     0.082926     0.169003
H109     H      0.397569    -0.019505    -0.433427
H110     H     -0.086078    -0.169003    -0.066573
H111     H     -0.413922    -0.480495    -0.082926
H112     H      0.102431    -0.330997    -0.417074
H113     H     -0.019505    -0.433427     0.397569
H114     H     -0.433427     0.397569    -0.019505
H115     H     -0.330997    -0.417074     0.102431
H116     H     -0.066573    -0.086078    -0.169003
H117     H     -0.169003    -0.066573    -0.086078
H118     H     -0.082926    -0.413922    -0.480495
H119     H     -0.480495    -0.082926    -0.413922
H120     H     -0.417074     0.102431    -0.330997
C73      C     -0.451515    -0.137946    -0.011588
C74      C      0.373642    -0.439927    -0.488412
C75      C     -0.048485    -0.060073     0.313569
C76      C      0.126358    -0.362054     0.186431
C77      C     -0.011588    -0.451515    -0.137946
C78      C     -0.137946    -0.011588    -0.451515
C79      C      0.186431     0.126358    -0.362054
C80      C     -0.439927    -0.488412     0.373642
C81      C     -0.488412     0.373642    -0.439927
C82      C     -0.060073     0.313569    -0.048485
C83      C      0.313569    -0.048485    -0.060073
C84      C     -0.362054     0.186431     0.126358
C85      C      0.362054     0.048485     0.488412
C86      C      0.060073    -0.126358     0.011588
C87      C      0.439927     0.451515    -0.186431
C88      C      0.137946    -0.373642    -0.313569
C89      C      0.048485     0.488412     0.362054
C90      C      0.488412     0.362054     0.048485
C91      C     -0.373642    -0.313569     0.137946
C92      C      0.011588     0.060073    -0.126358
C93      C     -0.126358     0.011588     0.060073
C94      C     -0.186431     0.439927     0.451515
C95      C      0.451515    -0.186431     0.439927
C96      C     -0.313569     0.137946    -0.373642
H121     H      0.492760    -0.166649     0.076653
H122     H      0.256699     0.416108     0.423347
H123     H      0.007240     0.083892     0.340591
H124     H      0.243301    -0.333351     0.159409
H125     H      0.076653     0.492760    -0.166649
H126     H     -0.166649     0.076653     0.492760
H127     H      0.159409     0.243301    -0.333351
H128     H      0.416108     0.423347     0.256699
H129     H      0.423347     0.256699     0.416108
H130     H      0.083892     0.340591     0.007240
H131     H      0.340591     0.007240     0.083892
H132     H     -0.333351     0.159409     0.243301
H133     H      0.333351    -0.007240    -0.423347
H134     H     -0.083892    -0.243301    -0.076653
H135     H     -0.416108    -0.492760    -0.159409
H136     H      0.166649    -0.256699    -0.340591
H137     H     -0.007240    -0.423347     0.333351
H138     H     -0.423347     0.333351    -0.007240
H139     H     -0.256699    -0.340591     0.166649
H140     H     -0.076653    -0.083892    -0.243301
H141     H     -0.243301    -0.076653    -0.083892
H142     H     -0.159409    -0.416108    -0.492760
H143     H     -0.492760    -0.159409    -0.416108
H144     H     -0.340591     0.166649    -0.256699
C97      C     -0.439267    -0.127810     0.090272
C98      C      0.281918     0.470460     0.409728
C99      C     -0.060733     0.029540     0.311458
C100     C      0.218082    -0.372190     0.188542
C101     C      0.090272    -0.439267    -0.127810
C102     C     -0.127810     0.090272    -0.439267
C103     C      0.188542     0.218082    -0.372190
C104     C      0.470460     0.409728     0.281918
C105     C      0.409728     0.281918     0.470460
C106     C      0.029540     0.311458    -0.060733
C107     C      0.311458    -0.060733     0.029540
C108     C     -0.372190     0.188542     0.218082
C109     C      0.372190     0.060733    -0.409728
C110     C     -0.029540    -0.218082    -0.090272
C111     C     -0.470460     0.439267    -0.188542
C112     C      0.127810    -0.281918    -0.311458
C113     C      0.060733    -0.409728     0.372190
C114     C     -0.409728     0.372190     0.060733
C115     C     -0.281918    -0.311458     0.127810
C116     C     -0.090272    -0.029540    -0.218082
C117     C     -0.218082    -0.090272    -0.029540
C118     C     -0.188542    -0.470460     0.439267
C119     C      0.439267    -0.188542    -0.470460
C120     C     -0.311458     0.127810    -0.281918
C121     C     -0.489323    -0.103678     0.075587
C122     C      0.320735     0.435090     0.424413
C123     C     -0.010677     0.064910     0.385645
C124     C      0.179265    -0.396322     0.114355
C125     C      0.075587    -0.489323    -0.103678
C126     C     -0.103678     0.075587    -0.489323
C127     C      0.114355     0.179265    -0.396322
C128     C      0.435090     0.424413     0.320735
C129     C      0.424413     0.320735     0.435090
C130     C      0.064910     0.385645    -0.010677
C131     C      0.385645    -0.010677     0.064910
C132     C     -0.396322     0.114355     0.179265
C133     C      0.396322     0.010677    -0.424413
C134     C     -0.064910    -0.179265    -0.075587
C135     C     -0.435090     0.489323    -0.114355
C136     C      0.103678    -0.320735    -0.385645
C137     C      0.010677    -0.424413     0.396322
C138     C     -0.424413     0.396322     0.010677
C139     C     -0.320735    -0.385645     0.103678
C140     C     -0.075587    -0.064910    -0.179265
C141     C     -0.179265    -0.075587    -0.064910
C142     C     -0.114355    -0.435090     0.489323
C143     C      0.489323    -0.114355    -0.435090
C144     C     -0.385645     0.103678    -0.320735
C145     C     -0.482648    -0.137368     0.080965
C146     C      0.281667     0.436387     0.419035
C147     C     -0.017352     0.063613     0.345280
C148     C      0.218333    -0.362632     0.154720
C149     C      0.080965    -0.482648    -0.137368
C150     C     -0.137368     0.080965    -0.482648
C151     C      0.154720     0.218333    -0.362632
C152     C      0.436387     0.419035     0.281667
C153     C      0.419035     0.281667     0.436387
C154     C      0.063613     0.345280    -0.017352
C155     C      0.345280    -0.017352     0.063613
C156     C     -0.362632     0.154720     0.218333
C157     C      0.362632     0.017352    -0.419035
C158     C     -0.063613    -0.218333    -0.080965
C159     C     -0.436387     0.482648    -0.154720
C160     C      0.137368    -0.281667    -0.345280
C161     C      0.017352    -0.419035     0.362632
C162     C     -0.419035     0.362632     0.017352
C163     C     -0.281667    -0.345280     0.137368
C164     C     -0.080965    -0.063613    -0.218333
C165     C     -0.218333    -0.080965    -0.063613
C166     C     -0.154720    -0.436387     0.482648
C167     C      0.482648    -0.154720    -0.436387
C168     C     -0.345280     0.137368    -0.281667
H145     H     -0.424701    -0.147542     0.095860
H146     H      0.256598     0.479439     0.404140
H147     H     -0.075299     0.020561     0.277159
H148     H      0.243402    -0.352458     0.222841
H149     H      0.095860    -0.424701    -0.147542
H150     H     -0.147542     0.095860    -0.424701
H151     H      0.222841     0.243402    -0.352458
H152     H      0.479439     0.404140     0.256598
H153     H      0.404140     0.256598     0.479439
H154     H      0.020561     0.277159    -0.075299
H155     H      0.277159    -0.075299     0.020561
H156     H     -0.352458     0.222841     0.243402
H157     H      0.352458     0.075299    -0.404140
H158     H     -0.020561    -0.243402    -0.095860
H159     H     -0.479439     0.424701    -0.222841
H160     H      0.147542    -0.256598    -0.277159
H161     H      0.075299    -0.404140     0.352458
H162     H     -0.404140     0.352458     0.075299
H163     H     -0.256598    -0.277159     0.147542
H164     H     -0.095860    -0.020561    -0.243402
H165     H     -0.243402    -0.095860    -0.020561
H166     H     -0.222841    -0.479439     0.424701
H167     H      0.424701    -0.222841    -0.479439
H168     H     -0.277159     0.147542    -0.256598
H169     H      0.451071    -0.145296    -0.030763
H170     H      0.385466     0.481833    -0.469237
H171     H      0.048929     0.018167     0.403633
H172     H      0.114534    -0.354704     0.096367
H173     H     -0.030763     0.451071    -0.145296
H174     H     -0.145296    -0.030763     0.451071
H175     H      0.096367     0.114534    -0.354704
H176     H      0.481833    -0.469237     0.385466
H177     H     -0.469237     0.385466     0.481833
H178     H      0.018167     0.403633     0.048929
H179     H      0.403633     0.048929     0.018167
H180     H     -0.354704     0.096367     0.114534
H181     H      0.354704    -0.048929     0.469237
H182     H     -0.018167    -0.114534     0.030763
H183     H     -0.481833    -0.451071    -0.096367
H184     H      0.145296    -0.385466    -0.403633
H185     H     -0.048929     0.469237     0.354704
H186     H      0.469237     0.354704    -0.048929
H187     H     -0.385466    -0.403633     0.145296
H188     H      0.030763    -0.018167    -0.114534
H189     H     -0.114534     0.030763    -0.018167
H190     H     -0.096367    -0.481833    -0.451071
H191     H     -0.451071    -0.096367    -0.481833
H192     H     -0.403633     0.145296    -0.385466
O1       O      0.485433    -0.044119     0.046853
O2       O      0.409028     0.438580     0.453147
O3       O      0.014567     0.061420     0.470448
O4       O      0.090972    -0.455881     0.029552
O5       O      0.046853     0.485433    -0.044119
O6       O     -0.044119     0.046853     0.485433
O7       O      0.029552     0.090972    -0.455881
O8       O      0.438580     0.453147     0.409028
O9       O      0.453147     0.409028     0.438580
O10      O      0.061420     0.470448     0.014567
O11      O      0.470448     0.014567     0.061420
O12      O     -0.455881     0.029552     0.090972
O13      O      0.455881    -0.014567    -0.453147
O14      O     -0.061420    -0.090972    -0.046853
O15      O     -0.438580    -0.485433    -0.029552
O16      O      0.044119    -0.409028    -0.470448
O17      O     -0.014567    -0.453147     0.455881
O18      O     -0.453147     0.455881    -0.014567
O19      O     -0.409028    -0.470448     0.044119
O20      O     -0.046853    -0.061420    -0.090972
O21      O     -0.090972    -0.046853    -0.061420
O22      O     -0.029552    -0.438580    -0.485433
O23      O     -0.485433    -0.029552    -0.438580
O24      O     -0.470448     0.044119    -0.409028
H193     H     -0.340602    -0.173116     0.069208
H194     H      0.257676    -0.409810     0.430792
H195     H     -0.159398    -0.090190     0.167486
H196     H      0.242324    -0.326884     0.332514
H197     H      0.069208    -0.340602    -0.173116
H198     H     -0.173116     0.069208    -0.340602
H199     H      0.332514     0.242324    -0.326884
H200     H     -0.409810     0.430792     0.257676
H201     H      0.430792     0.257676    -0.409810
H202     H     -0.090190     0.167486    -0.159398
H203     H      0.167486    -0.159398    -0.090190
H204     H     -0.326884     0.332514     0.242324
H205     H      0.326884     0.159398    -0.430792
H206     H      0.090190    -0.242324    -0.069208
H207     H      0.409810     0.340602    -0.332514
H208     H      0.173116    -0.257676    -0.167486
H209     H      0.159398    -0.430792     0.326884
H210     H     -0.430792     0.326884     0.159398
H211     H     -0.257676    -0.167486     0.173116
H212     H     -0.069208     0.090190    -0.242324
H213     H     -0.242324    -0.069208     0.090190
H214     H     -0.332514     0.409810     0.340602
H215     H      0.340602    -0.332514     0.409810
H216     H     -0.167486     0.173116    -0.257676
H217     H     -0.332964    -0.004323     0.102220
H218     H      0.393457    -0.435184     0.397780
H219     H     -0.167036    -0.064816     0.328641
H220     H      0.106543    -0.495677     0.171359
H221     H      0.102220    -0.332964    -0.004323
H222     H     -0.004323     0.102220    -0.332964
H223     H      0.171359     0.106543    -0.495677
H224     H     -0.435184     0.397780     0.393457
H225     H      0.397780     0.393457    -0.435184
H226     H     -0.064816     0.328641    -0.167036
H227     H      0.328641    -0.167036    -0.064816
H228     H     -0.495677     0.171359     0.106543
H229     H      0.495677     0.167036    -0.397780
H230     H      0.064816    -0.106543    -0.102220
H231     H      0.435184     0.332964    -0.171359
H232     H      0.004323    -0.393457    -0.328641
H233     H      0.167036    -0.397780     0.495677
H234     H     -0.397780     0.495677     0.167036
H235     H     -0.393457    -0.328641     0.004323
H236     H     -0.102220     0.064816    -0.106543
H237     H     -0.106543    -0.102220     0.064816
H238     H     -0.171359     0.435184     0.332964
H239     H      0.332964    -0.171359     0.435184
H240     H     -0.328641     0.004323    -0.393457
C169     C     -0.479740    -0.119750    -0.017554
C170     C      0.397804    -0.462185    -0.482446
C171     C     -0.020260    -0.037815     0.359989
C172     C      0.102196    -0.380250     0.140011
C173     C     -0.017554    -0.479740    -0.119750
C174     C     -0.119750    -0.017554    -0.479740
C175     C      0.140011     0.102196    -0.380250
C176     C     -0.462185    -0.482446     0.397804
C177     C     -0.482446     0.397804    -0.462185
C178     C     -0.037815     0.359989    -0.020260
C179     C      0.359989    -0.020260    -0.037815
C180     C     -0.380250     0.140011     0.102196
C181     C      0.380250     0.020260     0.482446
C182     C      0.037815    -0.102196     0.017554
C183     C      0.462185     0.479740    -0.140011
C184     C      0.119750    -0.397804    -0.359989
C185     C      0.020260     0.482446     0.380250
C186     C      0.482446     0.380250     0.020260
C187     C     -0.397804    -0.359989     0.119750
C188     C      0.017554     0.037815    -0.102196
C189     C     -0.102196     0.017554     0.037815
C190     C     -0.140011     0.462185     0.479740
C191     C      0.479740    -0.140011     0.462185
C192     C     -0.359989     0.119750    -0.397804
H241     H     -0.234840    -0.041833     0.165348
H242     H      0.292818    -0.400189     0.334652
H243     H     -0.265160    -0.099811     0.193007
H244     H      0.207182    -0.458167     0.306993
H245     H      0.165348    -0.234840    -0.041833
H246     H     -0.041833     0.165348    -0.234840
H247     H      0.306993     0.207182    -0.458167
H248     H     -0.400189     0.334652     0.292818
H249     H      0.334652     0.292818    -0.400189
H250     H     -0.099811     0.193007    -0.265160
H251     H      0.193007    -0.265160    -0.099811
H252     H     -0.458167     0.306993     0.207182
H253     H      0.458167     0.265160    -0.334652
H254     H      0.099811    -0.207182    -0.165348
H255     H      0.400189     0.234840    -0.306993
H256     H      0.041833    -0.292818    -0.193007
H257     H      0.265160    -0.334652     0.458167
H258     H     -0.334652     0.458167     0.265160
H259     H     -0.292818    -0.193007     0.041833
H260     H     -0.165348     0.099811    -0.207182
H261     H     -0.207182    -0.165348     0.099811
H262     H     -0.306993     0.400189     0.234840
H263     H      0.234840    -0.306993     0.400189
H264     H     -0.193007     0.041833    -0.292818
H265     H     -0.287190    -0.014391     0.154565
H266     H      0.331044    -0.441755     0.345435
H267     H     -0.212810    -0.058245     0.272799
H268     H      0.168956    -0.485609     0.227201
H269     H      0.154565    -0.287190    -0.014391
H270     H     -0.014391     0.154565    -0.287190
H271     H      0.227201     0.168956    -0.485609
H272     H     -0.441755     0.345435     0.331044
H273     H      0.345435     0.331044    -0.441755
H274     H     -0.058245     0.272799    -0.212810
H275     H      0.272799    -0.212810    -0.058245
H276     H     -0.485609     0.227201     0.168956
H277     H      0.485609     0.212810    -0.345435
H278     H      0.058245    -0.168956    -0.154565
H279     H      0.441755     0.287190    -0.227201
H280     H      0.014391    -0.331044    -0.272799
H281     H      0.212810    -0.345435     0.485609
H282     H     -0.345435     0.485609     0.212810
H283     H     -0.331044    -0.272799     0.014391
H284     H     -0.154565     0.058245    -0.168956
H285     H     -0.168956    -0.154565     0.058245
H286     H     -0.227201     0.441755     0.287190
H287     H      0.287190    -0.227201     0.441755
H288     H     -0.272799     0.014391    -0.331044
H289     H     -0.385248     0.023422     0.091255
H290     H      0.432167    -0.476503     0.408745
H291     H     -0.114752    -0.023497     0.408670
H292     H      0.067833     0.476578     0.091330
H293     H      0.091255    -0.385248     0.023422
H294     H      0.023422     0.091255    -0.385248
H295     H      0.091330     0.067833     0.476578
H296     H     -0.476503     0.408745     0.432167
H297     H      0.408745     0.432167    -0.476503
H298     H     -0.023497     0.408670    -0.114752
H299     H      0.408670    -0.114752    -0.023497
H300     H      0.476578     0.091330     0.067833
H301     H     -0.476578     0.114752    -0.408745
H302     H      0.023497    -0.067833    -0.091255
H303     H      0.476503     0.385248    -0.091330
H304     H     -0.023422    -0.432167    -0.408670
H305     H      0.114752    -0.408745    -0.476578
H306     H     -0.408745    -0.476578     0.114752
H307     H     -0.432167    -0.408670    -0.023422
H308     H     -0.091255     0.023497    -0.067833
H309     H     -0.067833    -0.091255     0.023497
H310     H     -0.091330     0.476503     0.385248
H311     H      0.385248    -0.091330     0.476503
H312     H     -0.408670    -0.023422    -0.432167
H313     H     -0.392492    -0.145187     0.056767
H314     H      0.298046    -0.449259     0.443233
H315     H     -0.107508    -0.050741     0.247305
H316     H      0.201954    -0.354813     0.252695
H317     H      0.056767    -0.392492    -0.145187
H318     H     -0.145187     0.056767    -0.392492
H319     H      0.252695     0.201954    -0.354813
H320     H     -0.449259     0.443233     0.298046
H321     H      0.443233     0.298046    -0.449259
H322     H     -0.050741     0.247305    -0.107508
H323     H      0.247305    -0.107508    -0.050741
H324     H     -0.354813     0.252695     0.201954
H325     H      0.354813     0.107508    -0.443233
H326     H      0.050741    -0.201954    -0.056767
H327     H      0.449259     0.392492    -0.252695
H328     H      0.145187    -0.298046    -0.247305
H329     H      0.107508    -0.443233     0.354813
H330     H     -0.443233     0.354813     0.107508
H331     H     -0.298046    -0.247305     0.145187
H332     H     -0.056767     0.050741    -0.201954
H333     H     -0.201954    -0.056767     0.050741
H334     H     -0.252695     0.449259     0.392492
H335     H      0.392492    -0.252695     0.449259
H336     H     -0.247305     0.145187    -0.298046
C193     C     -0.269442    -0.064570     0.140818
C194     C      0.294612    -0.410260     0.359182
C195     C     -0.230558    -0.089740     0.204872
C196     C      0.205388    -0.435430     0.295128
C197     C      0.140818    -0.269442    -0.064570
C198     C     -0.064570     0.140818    -0.269442
C199     C      0.295128     0.205388    -0.435430
C200     C     -0.410260     0.359182     0.294612
C201     C      0.359182     0.294612    -0.410260
C202     C     -0.089740     0.204872    -0.230558
C203     C      0.204872    -0.230558    -0.089740
C204     C     -0.435430     0.295128     0.205388
C205     C      0.435430     0.230558    -0.359182
C206     C      0.089740    -0.205388    -0.140818
C207     C      0.410260     0.269442    -0.295128
C208     C      0.064570    -0.294612    -0.204872
C209     C      0.230558    -0.359182     0.435430
C210     C     -0.359182     0.435430     0.230558
C211     C     -0.294612    -0.204872     0.064570
C212     C     -0.140818     0.089740    -0.205388
C213     C     -0.205388    -0.140818     0.089740
C214     C     -0.295128     0.410260     0.269442
C215     C      0.269442    -0.295128     0.410260
C216     C     -0.204872     0.064570    -0.294612
C217     C     -0.343716    -0.077971     0.104821
C218     C      0.317208    -0.448536     0.395179
C219     C     -0.156284    -0.051464     0.265744
C220     C      0.182792    -0.422029     0.234256
C221     C      0.104821    -0.343716    -0.077971
C222     C     -0.077971     0.104821    -0.343716
C223     C      0.234256     0.182792    -0.422029
C224     C     -0.448536     0.395179     0.317208
C225     C      0.395179     0.317208    -0.448536
C226     C     -0.051464     0.265744    -0.156284
C227     C      0.265744    -0.156284    -0.051464
C228     C     -0.422029     0.234256     0.182792
C229     C      0.422029     0.156284    -0.395179
C230     C      0.051464    -0.182792    -0.104821
C231     C      0.448536     0.343716    -0.234256
C232     C      0.077971    -0.317208    -0.265744
C233     C      0.156284    -0.395179     0.422029
C234     C     -0.395179     0.422029     0.156284
C235     C     -0.317208    -0.265744     0.077971
C236     C     -0.104821     0.051464    -0.182792
C237     C     -0.182792    -0.104821     0.051464
C238     C     -0.234256     0.448536     0.343716
C239     C      0.343716    -0.234256     0.448536
C240     C     -0.265744     0.077971    -0.317208
C241     C     -0.283675    -0.109432     0.117379
C242     C      0.273189    -0.401053     0.382621
C243     C     -0.216325    -0.098947     0.174242
C244     C      0.226811    -0.390568     0.325758
C245     C      0.117379    -0.283675    -0.109432
C246     C     -0.109432     0.117379    -0.283675
C247     C      0.325758     0.226811    -0.390568
C248     C     -0.401053     0.382621     0.273189
C249     C      0.382621     0.273189    -0.401053
C250     C     -0.098947     0.174242    -0.216325
C251     C      0.174242    -0.216325    -0.098947
C252     C     -0.390568     0.325758     0.226811
C253     C      0.390568     0.216325    -0.382621
C254     C      0.098947    -0.226811    -0.117379
C255     C      0.401053     0.283675    -0.325758
C256     C      0.109432    -0.273189    -0.174242
C257     C      0.216325    -0.382621     0.390568
C258     C     -0.382621     0.390568     0.216325
C259     C     -0.273189    -0.174242     0.109432
C260     C     -0.117379     0.098947    -0.226811
C261     C     -0.226811    -0.117379     0.098947
C262     C     -0.325758     0.401053     0.283675
C263     C      0.283675    -0.325758     0.401053
C264     C     -0.174242     0.109432    -0.273189
C265     C     -0.328382    -0.138040     0.087396
C266     C      0.274564    -0.415778     0.412604
C267     C     -0.171618    -0.084222     0.190343
C268     C      0.225436    -0.361960     0.309657
C269     C      0.087396    -0.328382    -0.138040
C270     C     -0.138040     0.087396    -0.328382
C271     C      0.309657     0.225436    -0.361960
C272     C     -0.415778     0.412604     0.274564
C273     C      0.412604     0.274564    -0.415778
C274     C     -0.084222     0.190343    -0.171618
C275     C      0.190343    -0.171618    -0.084222
C276     C     -0.361960     0.309657     0.225436
C277     C      0.361960     0.171618    -0.412604
C278     C      0.084222    -0.225436    -0.087396
C279     C      0.415778     0.328382    -0.309657
C280     C      0.138040    -0.274564    -0.190343
C281     C      0.171618    -0.412604     0.361960
C282     C     -0.412604     0.361960     0.171618
C283     C     -0.274564    -0.190343     0.138040
C284     C     -0.087396     0.084222    -0.225436
C285     C     -0.225436    -0.087396     0.084222
C286     C     -0.309657     0.415778     0.328382
C287     C      0.328382    -0.309657     0.415778
C288     C     -0.190343     0.138040    -0.274564
C289     C     -0.437222    -0.031091     0.082695
C290     C      0.386215     0.480084     0.417305
C291     C     -0.062778     0.019916     0.406131
C292     C      0.113785    -0.468909     0.093869
C293     C      0.082695    -0.437222    -0.031091
C294     C     -0.031091     0.082695    -0.437222
C295     C      0.093869     0.113785    -0.468909
C296     C      0.480084     0.417305     0.386215
C297     C      0.417305     0.386215     0.480084
C298     C      0.019916     0.406131    -0.062778
C299     C      0.406131    -0.062778     0.019916
C300     C     -0.468909     0.093869     0.113785
C301     C      0.468909     0.062778    -0.417305
C302     C     -0.019916    -0.113785    -0.082695
C303     C     -0.480084     0.437222    -0.093869
C304     C      0.031091    -0.386215    -0.406131
C305     C      0.062778    -0.417305     0.468909
C306     C     -0.417305     0.468909     0.062778
C307     C     -0.386215    -0.406131     0.031091
C308     C     -0.082695    -0.019916    -0.113785
C309     C     -0.113785    -0.082695    -0.019916
C310     C     -0.093869    -0.480084     0.437222
C311     C      0.437222    -0.093869    -0.480084
C312     C     -0.406131     0.031091    -0.386215
C313     C     -0.417823    -0.086705     0.092195
C314     C      0.321099     0.489981     0.407805
C315     C     -0.082177     0.010019     0.331118
C316     C      0.178901    -0.413295     0.168882
C317     C      0.092195    -0.417823    -0.086705
C318     C     -0.086705     0.092195    -0.417823
C319     C      0.168882     0.178901    -0.413295
C320     C      0.489981     0.407805     0.321099
C321     C      0.407805     0.321099     0.489981
C322     C      0.010019     0.331118    -0.082177
C323     C      0.331118    -0.082177     0.010019
C324     C     -0.413295     0.168882     0.178901
C325     C      0.413295     0.082177    -0.407805
C326     C     -0.010019    -0.178901    -0.092195
C327     C     -0.489981     0.417823    -0.168882
C328     C      0.086705    -0.321099    -0.331118
C329     C      0.082177    -0.407805     0.413295
C330     C     -0.407805     0.413295     0.082177
C331     C     -0.321099    -0.331118     0.086705
C332     C     -0.092195    -0.010019    -0.178901
C333     C     -0.178901    -0.092195    -0.010019
C334     C     -0.168882    -0.489981     0.417823
C335     C      0.417823    -0.168882    -0.489981
C336     C     -0.331118     0.086705    -0.321099
C337     C     -0.298788    -0.049124     0.134732
C338     C      0.316144    -0.433520     0.365268
C339     C     -0.201212    -0.066480     0.249664
C340     C      0.183856    -0.450876     0.250336
C341     C      0.134732    -0.298788    -0.049124
C342     C     -0.049124     0.134732    -0.298788
C343     C      0.250336     0.183856    -0.450876
C344     C     -0.433520     0.365268     0.316144
C345     C      0.365268     0.316144    -0.433520
C346     C     -0.066480     0.249664    -0.201212
C347     C      0.249664    -0.201212    -0.066480
C348     C     -0.450876     0.250336     0.183856
C349     C      0.450876     0.201212    -0.365268
C350     C      0.066480    -0.183856    -0.134732
C351     C      0.433520     0.298788    -0.250336
C352     C      0.049124    -0.316144    -0.249664
C353     C      0.201212    -0.365268     0.450876
C354     C     -0.365268     0.450876     0.201212
C355     C     -0.316144    -0.249664     0.049124
C356     C     -0.134732     0.066480    -0.183856
C357     C     -0.183856    -0.134732     0.066480
C358     C     -0.250336     0.433520     0.298788
C359     C      0.298788    -0.250336     0.433520
C360     C     -0.249664     0.049124    -0.316144
C361     C     -0.375144    -0.061997     0.098496
C362     C      0.339508    -0.473640     0.401504
C363     C     -0.124856    -0.026360     0.313147
C364     C      0.160492    -0.438003     0.186853
C365     C      0.098496    -0.375144    -0.061997
C366     C     -0.061997     0.098496    -0.375144
C367     C      0.186853     0.160492    -0.438003
C368     C     -0.473640     0.401504     0.339508
C369     C      0.401504     0.339508    -0.473640
C370     C     -0.026360     0.313147    -0.124856
C371     C      0.313147    -0.124856    -0.026360
C372     C     -0.438003     0.186853     0.160492
C373     C      0.438003     0.124856    -0.401504
C374     C      0.026360    -0.160492    -0.098496
C375     C      0.473640     0.375144    -0.186853
C376     C      0.061997    -0.339508    -0.313147
C377     C      0.124856    -0.401504     0.438003
C378     C     -0.401504     0.438003     0.124856
C379     C     -0.339508    -0.313147     0.061997
C380     C     -0.098496     0.026360    -0.160492
C381     C     -0.160492    -0.098496     0.026360
C382     C     -0.186853     0.473640     0.375144
C383     C      0.375144    -0.186853     0.473640
C384     C     -0.313147     0.061997    -0.339508
C385     C     -0.357820    -0.122603     0.080981
C386     C      0.296416    -0.438801     0.419019
C387     C     -0.142180    -0.061199     0.235217
C388     C      0.203584    -0.377397     0.264783
C389     C      0.080981    -0.357820    -0.122603
C390     C     -0.122603     0.080981    -0.357820
C391     C      0.264783     0.203584    -0.377397
C392     C     -0.438801     0.419019     0.296416
C393     C      0.419019     0.296416    -0.438801
C394     C     -0.061199     0.235217    -0.142180
C395     C      0.235217    -0.142180    -0.061199
C396     C     -0.377397     0.264783     0.203584
C397     C      0.377397     0.142180    -0.419019
C398     C      0.061199    -0.203584    -0.080981
C399     C      0.438801     0.357820    -0.264783
C400     C      0.122603    -0.296416    -0.235217
C401     C      0.142180    -0.419019     0.377397
C402     C     -0.419019     0.377397     0.142180
C403     C     -0.296416    -0.235217     0.122603
C404     C     -0.080981     0.061199    -0.203584
C405     C     -0.203584    -0.080981     0.061199
C406     C     -0.264783     0.438801     0.357820
C407     C      0.357820    -0.264783     0.438801
C408     C     -0.235217     0.122603    -0.296416
C409     C     -0.395186    -0.007638     0.091160
C410     C      0.401202    -0.486346     0.408840
C411     C     -0.104814    -0.013654     0.387548
C412     C      0.098798    -0.492362     0.112452
C413     C      0.091160    -0.395186    -0.007638
C414     C     -0.007638     0.091160    -0.395186
C415     C      0.112452     0.098798    -0.492362
C416     C     -0.486346     0.408840     0.401202
C417     C      0.408840     0.401202    -0.486346
C418     C     -0.013654     0.387548    -0.104814
C419     C      0.387548    -0.104814    -0.013654
C420     C     -0.492362     0.112452     0.098798
C421     C      0.492362     0.104814    -0.408840
C422     C      0.013654    -0.098798    -0.091160
C423     C      0.486346     0.395186    -0.112452
C424     C      0.007638    -0.401202    -0.387548
C425     C      0.104814    -0.408840     0.492362
C426     C     -0.408840     0.492362     0.104814
C427     C     -0.401202    -0.387548     0.007638
C428     C     -0.091160     0.013654    -0.098798
C429     C     -0.098798    -0.091160     0.013654
C430     C     -0.112452     0.486346     0.395186
C431     C      0.395186    -0.112452     0.486346
C432     C     -0.387548     0.007638    -0.401202
C433     C     -0.449059    -0.071564     0.083322
C434     C      0.345114     0.467618     0.416678
C435     C     -0.050941     0.032382     0.377496
C436     C      0.154886    -0.428436     0.122504
C437     C      0.083322    -0.449059    -0.071564
C438     C     -0.071564     0.083322    -0.449059
C439     C      0.122504     0.154886    -0.428436
C440     C      0.467618     0.416678     0.345114
C441     C      0.416678     0.345114     0.467618
C442     C      0.032382     0.377496    -0.050941
C443     C      0.377496    -0.050941     0.032382
C444     C     -0.428436     0.122504     0.154886
C445     C      0.428436     0.050941    -0.416678
C446     C     -0.032382    -0.154886    -0.083322
C447     C     -0.467618     0.449059    -0.122504
C448     C      0.071564    -0.345114    -0.377496
C449     C      0.050941    -0.416678     0.428436
C450     C     -0.416678     0.428436     0.050941
C451     C     -0.345114    -0.377496     0.071564
C452     C     -0.083322    -0.032382    -0.154886
C453     C     -0.154886    -0.083322    -0.032382
C454     C     -0.122504    -0.467618     0.449059
C455     C      0.449059    -0.122504    -0.467618
C456     C     -0.377496     0.071564    -0.345114
B1       B     -0.470070    -0.014734     0.072823
B2       B      0.412443     0.457108     0.427177
B3       B     -0.029930     0.042892     0.455336
B4       B      0.087557    -0.485266     0.044664
B5       B      0.072823    -0.470070    -0.014734
B6       B     -0.014734     0.072823    -0.470070
B7       B      0.044664     0.087557    -0.485266
B8       B      0.457108     0.427177     0.412443
B9       B      0.427177     0.412443     0.457108
B10      B      0.042892     0.455336    -0.029930
B11      B      0.455336    -0.029930     0.042892
B12      B     -0.485266     0.044664     0.087557
B13      B      0.485266     0.029930    -0.427177
B14      B     -0.042892    -0.087557    -0.072823
B15      B     -0.457108     0.470070    -0.044664
B16      B      0.014734    -0.412443    -0.455336
B17      B      0.029930    -0.427177     0.485266
B18      B     -0.427177     0.485266     0.029930
B19      B     -0.412443    -0.455336     0.014734
B20      B     -0.072823    -0.042892    -0.087557
B21      B     -0.087557    -0.072823    -0.042892
B22      B     -0.044664    -0.457108     0.470070
B23      B      0.470070    -0.044664    -0.457108
B24      B     -0.455336     0.014734    -0.412443
C457     C     -0.364882    -0.023047     0.098273
C458     C      0.378681    -0.463154     0.401727
C459     C     -0.135118    -0.036846     0.341835
C460     C      0.121319    -0.476953     0.158165
C461     C      0.098273    -0.364882    -0.023047
C462     C     -0.023047     0.098273    -0.364882
C463     C      0.158165     0.121319    -0.476953
C464     C     -0.463154     0.401727     0.378681
C465     C      0.401727     0.378681    -0.463154
C466     C     -0.036846     0.341835    -0.135118
C467     C      0.341835    -0.135118    -0.036846
C468     C     -0.476953     0.158165     0.121319
C469     C      0.476953     0.135118    -0.401727
C470     C      0.036846    -0.121319    -0.098273
C471     C      0.463154     0.364882    -0.158165
C472     C      0.023047    -0.378681    -0.341835
C473     C      0.135118    -0.401727     0.476953
C474     C     -0.401727     0.476953     0.135118
C475     C     -0.378681    -0.341835     0.023047
C476     C     -0.098273     0.036846    -0.121319
C477     C     -0.121319    -0.098273     0.036846
C478     C     -0.158165     0.463154     0.364882
C479     C      0.364882    -0.158165     0.463154
C480     C     -0.341835     0.023047    -0.378681
C481     C     -0.125000     0.125000    -0.250000
C482     C     -0.375000     0.375000     0.250000
C483     C     -0.250000    -0.125000     0.125000
C484     C      0.125000    -0.250000    -0.125000
C485     C      0.250000    -0.375000     0.375000
C486     C      0.375000     0.250000    -0.375000
