
#======================================================================
# CRYSTAL DATA
#----------------------------------------------------------------------
data_VESTA_phase_1

_chemical_name_common                  'IRCOF102_BULK_OPTGEOM_DZ_optimized'
_cell_length_a                         42.955631
_cell_length_b                         42.955631
_cell_length_c                         42.955631
_cell_angle_alpha                      90.000000
_cell_angle_beta                       90.000000
_cell_angle_gamma                      90.000000
_cell_volume                           79261.140438
_space_group_name_H-M_alt              'I -4 3 d'
_space_group_IT_number                 220

loop_
_space_group_symop_operation_xyz
   'x, y, z'
   '-x+1/2t, -y, z+1/2t'
   '-x, y+1/2t, -z+1/2t'
   'x+1/2t, -y+1/2t, -z'
   'z, x, y'
   'z+1/2t, -x+1/2t, -y'
   '-z+1/2t, -x, y+1/2t'
   '-z, x+1/2t, -y+1/2t'
   'y, z, x'
   '-y, z+1/2t, -x+1/2t'
   'y+1/2t, -z+1/2t, -x'
   '-y+1/2t, -z, x+1/2t'
   'y+1/4t, x+1/4t, z+1/4t'
   '-y+1/4t, -x+3/4t, z+3/4t'
   'y+3/4t, -x+1/4t, -z+3/4t'
   '-y+3/4t, x+3/4t, -z+1/4t'
   'x+1/4t, z+1/4t, y+1/4t'
   '-x+3/4t, z+3/4t, -y+1/4t'
   '-x+1/4t, -z+3/4t, y+3/4t'
   'x+3/4t, -z+1/4t, -y+3/4t'
   'z+1/4t, y+1/4t, x+1/4t'
   'z+3/4t, -y+1/4t, -x+3/4t'
   '-z+3/4t, y+3/4t, -x+1/4t'
   '-z+1/4t, -y+3/4t, x+3/4t'
   'x+1/2t, y+1/2t, z+1/2t'
   '-x, -y+1/2t, z'
   '-x+1/2t, y, -z'
   'x, -y, -z+1/2t'
   'z+1/2t, x+1/2t, y+1/2t'
   'z, -x, -y+1/2t'
   '-z, -x+1/2t, y'
   '-z+1/2t, x, -y'
   'y+1/2t, z+1/2t, x+1/2t'
   '-y+1/2t, z, -x'
   'y, -z, -x+1/2t'
   '-y, -z+1/2t, x'
   'y+3/4t, x+3/4t, z+3/4t'
   '-y+3/4t, -x+1/4t, z+1/4t'
   'y+1/4t, -x+3/4t, -z+1/4t'
   '-y+1/4t, x+1/4t, -z+3/4t'
   'x+3/4t, z+3/4t, y+3/4t'
   '-x+1/4t, z+1/4t, -y+3/4t'
   '-x+3/4t, -z+1/4t, y+1/4t'
   'x+1/4t, -z+3/4t, -y+1/4t'
   'z+3/4t, y+3/4t, x+3/4t'
   'z+1/4t, -y+3/4t, -x+1/4t'
   '-z+1/4t, y+1/4t, -x+3/4t'
   '-z+3/4t, -y+1/4t, x+1/4t'

loop_
   _atom_site_label
   _atom_site_occupancy
   _atom_site_fract_x
   _atom_site_fract_y
   _atom_site_fract_z
   _atom_site_adp_type
   _atom_site_U_iso_or_equiv
   _atom_site_type_symbol
   O1         1.0     0.210053    -0.195275     0.260431    Uiso  ? O
   H1         1.0     0.049110    -0.208302     0.118102    Uiso  ? H
   H2         1.0     0.109203    -0.280245     0.222018    Uiso  ? H
   H3         1.0     0.095876    -0.203198     0.150390    Uiso  ? H
   H4         1.0     0.014119    -0.278596     0.179640    Uiso  ? H
   H5         1.0     0.153924    -0.272298     0.257309    Uiso  ? H
   H6         1.0     0.060078    -0.272257     0.213170    Uiso  ? H
   C1         1.0     0.028534    -0.244580     0.145792    Uiso  ? C
   C2         1.0     0.032412    -0.262350     0.172908    Uiso  ? C
   C3         1.0     0.058413    -0.258813     0.191739    Uiso  ? C
   C4         1.0     0.077914    -0.219722     0.157247    Uiso  ? C
   C5         1.0     0.081877    -0.237391     0.184295    Uiso  ? C
   C6         1.0     0.150987    -0.200698     0.224463    Uiso  ? C
   C7         1.0     0.051708    -0.223026     0.138554    Uiso  ? C
   H7         1.0     0.163010    -0.178361     0.224930    Uiso  ? H
   C8         1.0     0.120450    -0.257547     0.223164    Uiso  ? C
   C9         1.0     0.161779    -0.224795     0.243581    Uiso  ? C
   H8         1.0     0.116331    -0.185073     0.192053    Uiso  ? H
   C10        1.0     0.125032    -0.204616     0.205657    Uiso  ? C
   C11        1.0     0.109341    -0.233211     0.204465    Uiso  ? C
   C12        1.0     0.145846    -0.253224     0.242656    Uiso  ? C
   B1         1.0     0.189921    -0.219831     0.265204    Uiso  ? B
   C13        1.0     0.250000     0.375000     0.000000    Uiso  ? C
