data_IRCOF102_BULK_OPTGEOM_DZ_optimized.outout

_cell_length_a                         37.20066777
_cell_length_b                         37.20066777
_cell_length_c                         37.20066777
_cell_angle_alpha                      109.47122100
_cell_angle_beta                       109.47122100
_cell_angle_gamma                      109.47122100
_symmetry_space_group_name_H-M         'P 1'
_symmetry_Int_Tables_number            1

loop_
_symmetry_equiv_pos_as_xyz
   'x, y, z'

loop_
   _atom_site_label
   _atom_site_type_symbol
   _atom_site_fract_x
   _atom_site_fract_y
   _atom_site_fract_z
 O001   O  0.065155933363  0.470483275596  0.014778018449
 O002   O  -0.044294742853  0.050377914914  0.485221981551
 O003   O  0.434844066637  0.449622085086  0.405327342233
 O004   O  -0.455705257147  0.029516724404  0.094672657767
 O005   O  0.014778018449  0.065155933363  0.470483275596
 O006   O  0.470483275596  0.014778018449  0.065155933363
 O007   O  0.094672657767  -0.455705257147  0.029516724404
 O008   O  0.050377914914  0.485221981551  -0.044294742853
 O009   O  0.485221981551  -0.044294742853  0.050377914914
 O010   O  0.449622085086  0.405327342233  0.434844066637
 O011   O  0.405327342233  0.434844066637  0.449622085086
 O012   O  0.029516724404  0.094672657767  -0.455705257147
 O013   O  -0.029516724404  -0.434844066637  -0.485221981551
 O014   O  -0.449622085086  0.455705257147  -0.014778018449
 O015   O  -0.050377914914  -0.065155933363  -0.094672657767
 O016   O  -0.470483275596  0.044294742853  -0.405327342233
 O017   O  -0.434844066637  -0.485221981551  -0.029516724404
 O018   O  -0.485221981551  -0.029516724404  -0.434844066637
 O019   O  0.044294742853  -0.405327342233  -0.470483275596
 O020   O  -0.014778018449  -0.449622085086  0.455705257147
 O021   O  0.455705257147  -0.014778018449  -0.449622085086
 O022   O  -0.094672657767  -0.050377914914  -0.065155933363
 O023   O  -0.065155933363  -0.094672657767  -0.050377914914
 O024   O  -0.405327342233  -0.470483275596  0.044294742853
 H025   H  -0.090200398431  0.167211711809  -0.159192201451
 H026   H  -0.173596086740  0.068991803019  -0.340807798549
 H027   H  -0.409799601569  0.431008196981  0.257412110240
 H028   H  -0.326403913260  0.332788288191  0.242587889760
 H029   H  -0.159192201451  -0.090200398431  0.167211711809
 H030   H  0.167211711809  -0.159192201451  -0.090200398431
 H031   H  0.242587889760  -0.326403913260  0.332788288191
 H032   H  0.068991803019  -0.340807798549  -0.173596086740
 H033   H  -0.340807798549  -0.173596086740  0.068991803019
 H034   H  0.431008196981  0.257412110240  -0.409799601569
 H035   H  0.257412110240  -0.409799601569  0.431008196981
 H036   H  0.332788288191  0.242587889760  -0.326403913260
 H037   H  -0.332788288191  0.409799601569  0.340807798549
 H038   H  -0.431008196981  0.326403913260  0.159192201451
 H039   H  -0.068991803019  0.090200398431  -0.242587889760
 H040   H  -0.167211711809  0.173596086740  -0.257412110240
 H041   H  0.409799601569  0.340807798549  -0.332788288191
 H042   H  0.340807798549  -0.332788288191  0.409799601569
 H043   H  0.173596086740  -0.257412110240  -0.167211711809
 H044   H  0.159192201451  -0.431008196981  0.326403913260
 H045   H  0.326403913260  0.159192201451  -0.431008196981
 H046   H  -0.242587889760  -0.068991803019  0.090200398431
 H047   H  0.090200398431  -0.242587889760  -0.068991803019
 H048   H  -0.257412110240  -0.167211711809  0.173596086740
 H049   H  -0.058227076833  0.331220766663  -0.171041324035
 H050   H  0.002262090698  0.112814247202  -0.328958675965
 H051   H  -0.441772923167  0.387185752798  0.389447843496
 H052   H  0.497737909302  0.168779233337  0.110552156504
 H053   H  -0.171041324035  -0.058227076833  0.331220766663
 H054   H  0.331220766663  -0.171041324035  -0.058227076833
 H055   H  0.110552156504  0.497737909302  0.168779233337
 H056   H  0.112814247202  -0.328958675965  0.002262090698
 H057   H  -0.328958675965  0.002262090698  0.112814247202
 H058   H  0.387185752798  0.389447843496  -0.441772923167
 H059   H  0.389447843496  -0.441772923167  0.387185752798
 H060   H  0.168779233337  0.110552156504  0.497737909302
 H061   H  -0.168779233337  0.441772923167  0.328958675965
 H062   H  -0.387185752798  -0.497737909302  0.171041324035
 H063   H  -0.112814247202  0.058227076833  -0.110552156504
 H064   H  -0.331220766663  -0.002262090698  -0.389447843496
 H065   H  0.441772923167  0.328958675965  -0.168779233337
 H066   H  0.328958675965  -0.168779233337  0.441772923167
 H067   H  -0.002262090698  -0.389447843496  -0.331220766663
 H068   H  0.171041324035  -0.387185752798  -0.497737909302
 H069   H  -0.497737909302  0.171041324035  -0.387185752798
 H070   H  -0.110552156504  -0.112814247202  0.058227076833
 H071   H  0.058227076833  -0.110552156504  -0.112814247202
 H072   H  -0.389447843496  -0.331220766663  -0.002262090698
 H073   H  -0.052808415975  0.246266563005  -0.107322005388
 H074   H  -0.146411431608  0.054513589413  -0.392677994612
 H075   H  -0.447191584025  0.445486410587  0.299074978980
 H076   H  -0.353588568392  0.253733436995  0.200925021020
 H077   H  -0.107322005388  -0.052808415975  0.246266563005
 H078   H  0.246266563005  -0.107322005388  -0.052808415975
 H079   H  0.200925021020  -0.353588568392  0.253733436995
 H080   H  0.054513589413  -0.392677994612  -0.146411431608
 H081   H  -0.392677994612  -0.146411431608  0.054513589413
 H082   H  0.445486410587  0.299074978980  -0.447191584025
 H083   H  0.299074978980  -0.447191584025  0.445486410587
 H084   H  0.253733436995  0.200925021020  -0.353588568392
 H085   H  -0.253733436995  0.447191584025  0.392677994612
 H086   H  -0.445486410587  0.353588568392  0.107322005388
 H087   H  -0.054513589413  0.052808415975  -0.200925021020
 H088   H  -0.246266563005  0.146411431608  -0.299074978980
 H089   H  0.447191584025  0.392677994612  -0.253733436995
 H090   H  0.392677994612  -0.253733436995  0.447191584025
 H091   H  0.146411431608  -0.299074978980  -0.246266563005
 H092   H  0.107322005388  -0.445486410587  0.353588568392
 H093   H  0.353588568392  0.107322005388  -0.445486410587
 H094   H  -0.200925021020  -0.054513589413  0.052808415975
 H095   H  0.052808415975  -0.200925021020  -0.054513589413
 H096   H  -0.299074978980  -0.246266563005  0.146411431608
 H097   H  -0.098956110961  0.193758666121  -0.264477067472
 H098   H  -0.041764266408  0.165520956511  -0.235522932528
 H099   H  -0.401043889039  0.334479043489  0.292714777082
 H100   H  -0.458235733593  0.306241333879  0.207285222918
 H101   H  -0.264477067472  -0.098956110961  0.193758666121
 H102   H  0.193758666121  -0.264477067472  -0.098956110961
 H103   H  0.207285222918  -0.458235733593  0.306241333879
 H104   H  0.165520956511  -0.235522932528  -0.041764266408
 H105   H  -0.235522932528  -0.041764266408  0.165520956511
 H106   H  0.334479043489  0.292714777082  -0.401043889039
 H107   H  0.292714777082  -0.401043889039  0.334479043489
 H108   H  0.306241333879  0.207285222918  -0.458235733593
 H109   H  -0.306241333879  0.401043889039  0.235522932528
 H110   H  -0.334479043489  0.458235733593  0.264477067472
 H111   H  -0.165520956511  0.098956110961  -0.207285222918
 H112   H  -0.193758666121  0.041764266408  -0.292714777082
 H113   H  0.401043889039  0.235522932528  -0.306241333879
 H114   H  0.235522932528  -0.306241333879  0.401043889039
 H115   H  0.041764266408  -0.292714777082  -0.193758666121
 H116   H  0.264477067472  -0.334479043489  0.458235733593
 H117   H  0.458235733593  0.264477067472  -0.334479043489
 H118   H  -0.207285222918  -0.165520956511  0.098956110961
 H119   H  0.098956110961  -0.207285222918  -0.165520956511
 H120   H  -0.292714777082  -0.193758666121  0.041764266408
 H121   H  -0.014988858379  0.411233426127  -0.118374394962
 H122   H  0.029607821088  0.103385536582  -0.381625605038
 H123   H  -0.485011141621  0.396614463418  0.426222284506
 H124   H  0.470392178912  0.088766573873  0.073777715494
 H125   H  -0.118374394962  -0.014988858379  0.411233426127
 H126   H  0.411233426127  -0.118374394962  -0.014988858379
 H127   H  0.073777715494  0.470392178912  0.088766573873
 H128   H  0.103385536582  -0.381625605038  0.029607821088
 H129   H  -0.381625605038  0.029607821088  0.103385536582
 H130   H  0.396614463418  0.426222284506  -0.485011141621
 H131   H  0.426222284506  -0.485011141621  0.396614463418
 H132   H  0.088766573873  0.073777715494  0.470392178912
 H133   H  -0.088766573873  0.485011141621  0.381625605038
 H134   H  -0.396614463418  -0.470392178912  0.118374394962
 H135   H  -0.103385536582  0.014988858379  -0.073777715494
 H136   H  -0.411233426127  -0.029607821088  -0.426222284506
 H137   H  0.485011141621  0.381625605038  -0.088766573873
 H138   H  0.381625605038  -0.088766573873  0.485011141621
 H139   H  -0.029607821088  -0.426222284506  -0.411233426127
 H140   H  0.118374394962  -0.396614463418  -0.470392178912
 H141   H  -0.470392178912  0.118374394962  -0.396614463418
 H142   H  -0.073777715494  -0.103385536582  0.014988858379
 H143   H  0.014988858379  -0.073777715494  -0.103385536582
 H144   H  -0.426222284506  -0.411233426127  -0.029607821088
 H145   H  -0.059086797831  0.273248324733  -0.212178826236
 H146   H  -0.014572849031  0.153092028405  -0.287821173764
 H147   H  -0.440913202169  0.346907971595  0.332335122565
 H148   H  -0.485427150969  0.226751675267  0.167664877435
 H149   H  -0.212178826236  -0.059086797831  0.273248324733
 H150   H  0.273248324733  -0.212178826236  -0.059086797831
 H151   H  0.167664877435  -0.485427150969  0.226751675267
 H152   H  0.153092028405  -0.287821173764  -0.014572849031
 H153   H  -0.287821173764  -0.014572849031  0.153092028405
 H154   H  0.346907971595  0.332335122565  -0.440913202169
 H155   H  0.332335122565  -0.440913202169  0.346907971595
 H156   H  0.226751675267  0.167664877435  -0.485427150969
 H157   H  -0.226751675267  0.440913202169  0.287821173764
 H158   H  -0.346907971595  0.485427150969  0.212178826236
 H159   H  -0.153092028405  0.059086797831  -0.167664877435
 H160   H  -0.273248324733  0.014572849031  -0.332335122565
 H161   H  0.440913202169  0.287821173764  -0.226751675267
 H162   H  0.287821173764  -0.226751675267  0.440913202169
 H163   H  0.014572849031  -0.332335122565  -0.273248324733
 H164   H  0.212178826236  -0.346907971595  0.485427150969
 H165   H  0.485427150969  0.212178826236  -0.346907971595
 H166   H  -0.167664877435  -0.153092028405  0.059086797831
 H167   H  0.059086797831  -0.167664877435  -0.153092028405
 H168   H  -0.332335122565  -0.273248324733  0.014572849031
 C169   C  -0.098787500838  0.174326511914  -0.216045193820
 C170   C  -0.109628294265  0.117257692982  -0.283954806180
 C171   C  -0.401212499162  0.382742307018  0.273114012752
 C172   C  -0.390371705735  0.325673488086  0.226885987248
 C173   C  -0.216045193820  -0.098787500838  0.174326511914
 C174   C  0.174326511914  -0.216045193820  -0.098787500838
 C175   C  0.226885987248  -0.390371705735  0.325673488086
 C176   C  0.117257692982  -0.283954806180  -0.109628294265
 C177   C  -0.283954806180  -0.109628294265  0.117257692982
 C178   C  0.382742307018  0.273114012752  -0.401212499162
 C179   C  0.273114012752  -0.401212499162  0.382742307018
 C180   C  0.325673488086  0.226885987248  -0.390371705735
 C181   C  -0.325673488086  0.401212499162  0.283954806180
 C182   C  -0.382742307018  0.390371705735  0.216045193820
 C183   C  -0.117257692982  0.098787500838  -0.226885987248
 C184   C  -0.174326511914  0.109628294265  -0.273114012752
 C185   C  0.401212499162  0.283954806180  -0.325673488086
 C186   C  0.283954806180  -0.325673488086  0.401212499162
 C187   C  0.109628294265  -0.273114012752  -0.174326511914
 C188   C  0.216045193820  -0.382742307018  0.390371705735
 C189   C  0.390371705735  0.216045193820  -0.382742307018
 C190   C  -0.226885987248  -0.117257692982  0.098787500838
 C191   C  0.098787500838  -0.226885987248  -0.117257692982
 C192   C  -0.273114012752  -0.174326511914  0.109628294265
 C193   C  -0.089441910739  0.205320713252  -0.229937751520
 C194   C  -0.064741535227  0.140495840781  -0.270062248480
 C195   C  -0.410558089261  0.359504159218  0.294762623991
 C196   C  -0.435258464773  0.294679286748  0.205237376009
 C197   C  -0.229937751520  -0.089441910739  0.205320713252
 C198   C  0.205320713252  -0.229937751520  -0.089441910739
 C199   C  0.205237376009  -0.435258464773  0.294679286748
 C200   C  0.140495840781  -0.270062248480  -0.064741535227
 C201   C  -0.270062248480  -0.064741535227  0.140495840781
 C202   C  0.359504159218  0.294762623991  -0.410558089261
 C203   C  0.294762623991  -0.410558089261  0.359504159218
 C204   C  0.294679286748  0.205237376009  -0.435258464773
 C205   C  -0.294679286748  0.410558089261  0.270062248480
 C206   C  -0.359504159218  0.435258464773  0.229937751520
 C207   C  -0.140495840781  0.089441910739  -0.205237376009
 C208   C  -0.205320713252  0.064741535227  -0.294762623991
 C209   C  0.410558089261  0.270062248480  -0.294679286748
 C210   C  0.270062248480  -0.294679286748  0.410558089261
 C211   C  0.064741535227  -0.294762623991  -0.205320713252
 C212   C  0.229937751520  -0.359504159218  0.435258464773
 C213   C  0.435258464773  0.229937751520  -0.359504159218
 C214   C  -0.205237376009  -0.140495840781  0.089441910739
 C215   C  0.089441910739  -0.205237376009  -0.140495840781
 C216   C  -0.294762623991  -0.205320713252  0.064741535227
 C217   C  -0.067073702208  0.250152606622  -0.200399858958
 C218   C  -0.049447534420  0.133326156749  -0.299600141042
 C219   C  -0.432926297792  0.366673843251  0.317226308831
 C220   C  -0.450552465580  0.249847393378  0.182773691169
 C221   C  -0.200399858958  -0.067073702208  0.250152606622
 C222   C  0.250152606622  -0.200399858958  -0.067073702208
 C223   C  0.182773691169  -0.450552465580  0.249847393378
 C224   C  0.133326156749  -0.299600141042  -0.049447534420
 C225   C  -0.299600141042  -0.049447534420  0.133326156749
 C226   C  0.366673843251  0.317226308831  -0.432926297792
 C227   C  0.317226308831  -0.432926297792  0.366673843251
 C228   C  0.249847393378  0.182773691169  -0.450552465580
 C229   C  -0.249847393378  0.432926297792  0.299600141042
 C230   C  -0.366673843251  0.450552465580  0.200399858958
 C231   C  -0.133326156749  0.067073702208  -0.182773691169
 C232   C  -0.250152606622  0.049447534420  -0.317226308831
 C233   C  0.432926297792  0.299600141042  -0.249847393378
 C234   C  0.299600141042  -0.249847393378  0.432926297792
 C235   C  0.049447534420  -0.317226308831  -0.250152606622
 C236   C  0.200399858958  -0.366673843251  0.450552465580
 C237   C  0.450552465580  0.200399858958  -0.366673843251
 C238   C  -0.182773691169  -0.133326156749  0.067073702208
 C239   C  0.067073702208  -0.182773691169  -0.133326156749
 C240   C  -0.317226308831  -0.250152606622  0.049447534420
 C241   C  -0.062474840629  0.235161261836  -0.141807899335
 C242   C  -0.123030838829  0.079333058706  -0.358192100665
 C243   C  -0.437525159371  0.420666941294  0.297636102465
 C244   C  -0.376969161171  0.264838738164  0.202363897535
 C245   C  -0.141807899335  -0.062474840629  0.235161261836
 C246   C  0.235161261836  -0.141807899335  -0.062474840629
 C247   C  0.202363897535  -0.376969161171  0.264838738164
 C248   C  0.079333058706  -0.358192100665  -0.123030838829
 C249   C  -0.358192100665  -0.123030838829  0.079333058706
 C250   C  0.420666941294  0.297636102465  -0.437525159371
 C251   C  0.297636102465  -0.437525159371  0.420666941294
 C252   C  0.264838738164  0.202363897535  -0.376969161171
 C253   C  -0.264838738164  0.437525159371  0.358192100665
 C254   C  -0.420666941294  0.376969161171  0.141807899335
 C255   C  -0.079333058706  0.062474840629  -0.202363897535
 C256   C  -0.235161261836  0.123030838829  -0.297636102465
 C257   C  0.437525159371  0.358192100665  -0.264838738164
 C258   C  0.358192100665  -0.264838738164  0.437525159371
 C259   C  0.123030838829  -0.297636102465  -0.235161261836
 C260   C  0.141807899335  -0.420666941294  0.376969161171
 C261   C  0.376969161171  0.141807899335  -0.420666941294
 C262   C  -0.202363897535  -0.079333058706  0.062474840629
 C263   C  0.062474840629  -0.202363897535  -0.079333058706
 C264   C  -0.297636102465  -0.235161261836  0.123030838829
 C265   C  -0.053096532321  0.266172184834  -0.155514143691
 C266   C  -0.078313671476  0.102417611370  -0.344485856310
 C267   C  -0.446903467680  0.397582388630  0.319268717154
 C268   C  -0.421686328524  0.233827815166  0.180731282846
 C269   C  -0.155514143691  -0.053096532321  0.266172184834
 C270   C  0.266172184834  -0.155514143691  -0.053096532321
 C271   C  0.180731282846  -0.421686328524  0.233827815166
 C272   C  0.102417611370  -0.344485856310  -0.078313671476
 C273   C  -0.344485856310  -0.078313671476  0.102417611370
 C274   C  0.397582388630  0.319268717154  -0.446903467680
 C275   C  0.319268717154  -0.446903467680  0.397582388630
 C276   C  0.233827815166  0.180731282846  -0.421686328524
 C277   C  -0.233827815166  0.446903467680  0.344485856310
 C278   C  -0.397582388630  0.421686328524  0.155514143691
 C279   C  -0.102417611370  0.053096532321  -0.180731282846
 C280   C  -0.266172184834  0.078313671476  -0.319268717154
 C281   C  0.446903467680  0.344485856310  -0.233827815166
 C282   C  0.344485856310  -0.233827815166  0.446903467680
 C283   C  0.078313671476  -0.319268717154  -0.266172184834
 C284   C  0.155514143691  -0.397582388630  0.421686328524
 C285   C  0.421686328524  0.155514143691  -0.397582388630
 C286   C  -0.180731282846  -0.102417611370  0.053096532321
 C287   C  0.053096532321  -0.180731282846  -0.102417611370
 C288   C  -0.319268717154  -0.266172184834  0.078313671476
 C289   C  0.023764666513  0.375449674546  -0.049710762767
 C290   C  -0.074839562687  0.073475429279  -0.450289237233
 C291   C  0.476235333487  0.426524570721  0.351685008034
 C292   C  -0.425160437313  0.124550325454  0.148314991966
 C293   C  -0.049710762767  0.023764666513  0.375449674546
 C294   C  0.375449674546  -0.049710762767  0.023764666513
 C295   C  0.148314991966  -0.425160437313  0.124550325454
 C296   C  0.073475429279  -0.450289237233  -0.074839562687
 C297   C  -0.450289237233  -0.074839562687  0.073475429279
 C298   C  0.426524570721  0.351685008034  0.476235333487
 C299   C  0.351685008034  0.476235333487  0.426524570721
 C300   C  0.124550325454  0.148314991966  -0.425160437313
 C301   C  -0.124550325454  -0.476235333487  0.450289237233
 C302   C  -0.426524570721  0.425160437313  0.049710762767
 C303   C  -0.073475429279  -0.023764666513  -0.148314991966
 C304   C  -0.375449674546  0.074839562687  -0.351685008034
 C305   C  -0.476235333487  0.450289237233  -0.124550325454
 C306   C  0.450289237233  -0.124550325454  -0.476235333487
 C307   C  0.074839562687  -0.351685008034  -0.375449674546
 C308   C  0.049710762767  -0.426524570721  0.425160437313
 C309   C  0.425160437313  0.049710762767  -0.426524570721
 C310   C  -0.148314991966  -0.073475429279  -0.023764666513
 C311   C  -0.023764666513  -0.148314991966  -0.073475429279
 C312   C  -0.351685008034  -0.375449674546  0.074839562687
 C313   C  -0.084472021747  0.190261598823  -0.171318451138
 C314   C  -0.138419950039  0.086846429392  -0.328681548861
 C315   C  -0.415527978253  0.413153570608  0.274733620569
 C316   C  -0.361580049961  0.309738401177  0.225266379431
 C317   C  -0.171318451138  -0.084472021747  0.190261598823
 C318   C  0.190261598823  -0.171318451138  -0.084472021747
 C319   C  0.225266379431  -0.361580049961  0.309738401177
 C320   C  0.086846429392  -0.328681548861  -0.138419950039
 C321   C  -0.328681548861  -0.138419950039  0.086846429392
 C322   C  0.413153570608  0.274733620569  -0.415527978253
 C323   C  0.274733620569  -0.415527978253  0.413153570608
 C324   C  0.309738401177  0.225266379431  -0.361580049961
 C325   C  -0.309738401177  0.415527978253  0.328681548861
 C326   C  -0.413153570608  0.361580049961  0.171318451138
 C327   C  -0.086846429392  0.084472021747  -0.225266379431
 C328   C  -0.190261598823  0.138419950039  -0.274733620569
 C329   C  0.415527978253  0.328681548861  -0.309738401177
 C330   C  0.328681548861  -0.309738401177  0.415527978253
 C331   C  0.138419950039  -0.274733620569  -0.190261598823
 C332   C  0.171318451138  -0.413153570608  0.361580049961
 C333   C  0.361580049961  0.171318451138  -0.413153570608
 C334   C  -0.225266379431  -0.086846429392  0.084472021747
 C335   C  0.084472021747  -0.225266379431  -0.086846429392
 C336   C  -0.274733620569  -0.190261598823  0.138419950039
 H337   H  0.046569963476  0.387940290783  -0.015350706619
 H338   H  -0.096709002598  0.061920670095  -0.484649293381
 H339   H  0.453430036524  0.438079329905  0.341370327307
 H340   H  -0.403290997402  0.112059709217  0.158629672693
 H341   H  -0.015350706619  0.046569963476  0.387940290783
 H342   H  0.387940290783  -0.015350706619  0.046569963476
 H343   H  0.158629672693  -0.403290997402  0.112059709217
 H344   H  0.061920670095  -0.484649293381  -0.096709002598
 H345   H  -0.484649293381  -0.096709002598  0.061920670095
 H346   H  0.438079329905  0.341370327307  0.453430036524
 H347   H  0.341370327307  0.453430036524  0.438079329905
 H348   H  0.112059709217  0.158629672693  -0.403290997402
 H349   H  -0.112059709217  -0.453430036524  0.484649293381
 H350   H  -0.438079329905  0.403290997402  0.015350706619
 H351   H  -0.061920670095  -0.046569963476  -0.158629672693
 H352   H  -0.387940290783  0.096709002598  -0.341370327307
 H353   H  -0.453430036524  0.484649293381  -0.112059709217
 H354   H  0.484649293381  -0.112059709217  -0.453430036524
 H355   H  0.096709002598  -0.341370327307  -0.387940290783
 H356   H  0.015350706619  -0.438079329905  0.403290997402
 H357   H  0.403290997402  0.015350706619  -0.438079329905
 H358   H  -0.158629672693  -0.061920670095  -0.046569963476
 H359   H  -0.046569963476  -0.158629672693  -0.061920670095
 H360   H  -0.341370327307  -0.387940290783  0.096709002598
 C361   C  -0.034382819576  0.343613817124  -0.137096816753
 C362   C  -0.019289366123  0.102713997178  -0.362903183247
 C363   C  -0.465617180424  0.397286002822  0.377996636700
 C364   C  -0.480710633877  0.156386182876  0.122003363300
 C365   C  -0.137096816753  -0.034382819576  0.343613817124
 C366   C  0.343613817124  -0.137096816753  -0.034382819576
 C367   C  0.122003363300  -0.480710633877  0.156386182876
 C368   C  0.102713997178  -0.362903183247  -0.019289366123
 C369   C  -0.362903183247  -0.019289366123  0.102713997178
 C370   C  0.397286002822  0.377996636700  -0.465617180424
 C371   C  0.377996636700  -0.465617180424  0.397286002822
 C372   C  0.156386182876  0.122003363300  -0.480710633877
 C373   C  -0.156386182876  0.465617180424  0.362903183247
 C374   C  -0.397286002822  0.480710633877  0.137096816753
 C375   C  -0.102713997178  0.034382819576  -0.122003363300
 C376   C  -0.343613817124  0.019289366123  -0.377996636700
 C377   C  0.465617180424  0.362903183247  -0.156386182876
 C378   C  0.362903183247  -0.156386182876  0.465617180424
 C379   C  0.019289366123  -0.377996636700  -0.343613817124
 C380   C  0.137096816753  -0.397286002822  0.480710633877
 C381   C  0.480710633877  0.137096816753  -0.397286002822
 C382   C  -0.122003363300  -0.102713997178  0.034382819576
 C383   C  0.034382819576  -0.122003363300  -0.102713997178
 C384   C  -0.377996636700  -0.343613817124  0.019289366123
 C385   C  0.018786234928  0.405359861211  -0.063016061594
 C386   C  -0.031624077194  0.081802296523  -0.436983938406
 C387   C  0.481213765072  0.418197703477  0.386573626283
 C388   C  -0.468375922806  0.094640138789  0.113426373717
 C389   C  -0.063016061594  0.018786234928  0.405359861211
 C390   C  0.405359861211  -0.063016061594  0.018786234928
 C391   C  0.113426373717  -0.468375922806  0.094640138789
 C392   C  0.081802296523  -0.436983938406  -0.031624077194
 C393   C  -0.436983938406  -0.031624077194  0.081802296523
 C394   C  0.418197703477  0.386573626283  0.481213765072
 C395   C  0.386573626283  0.481213765072  0.418197703477
 C396   C  0.094640138789  0.113426373717  -0.468375922806
 C397   C  -0.094640138789  -0.481213765072  0.436983938406
 C398   C  -0.418197703477  0.468375922806  0.063016061594
 C399   C  -0.081802296523  -0.018786234928  -0.113426373717
 C400   C  -0.405359861211  0.031624077194  -0.386573626283
 C401   C  -0.481213765072  0.436983938406  -0.094640138789
 C402   C  0.436983938406  -0.094640138789  -0.481213765072
 C403   C  0.031624077194  -0.386573626283  -0.405359861211
 C404   C  0.063016061594  -0.418197703477  0.468375922806
 C405   C  0.468375922806  0.063016061594  -0.418197703477
 C406   C  -0.113426373717  -0.081802296523  -0.018786234928
 C407   C  -0.018786234928  -0.113426373717  -0.081802296523
 C408   C  -0.386573626283  -0.405359861211  0.031624077194
 H409   H  0.006980686752  0.308383908698  -0.068741946657
 H410   H  -0.122874144645  0.075722633409  -0.431258053343
 H411   H  0.493019313248  0.424277366591  0.301403221946
 H412   H  -0.377125855355  0.191616091302  0.198596778054
 H413   H  -0.068741946657  0.006980686752  0.308383908698
 H414   H  0.308383908698  -0.068741946657  0.006980686752
 H415   H  0.198596778054  -0.377125855355  0.191616091302
 H416   H  0.075722633409  -0.431258053343  -0.122874144645
 H417   H  -0.431258053343  -0.122874144645  0.075722633409
 H418   H  0.424277366591  0.301403221946  0.493019313248
 H419   H  0.301403221946  0.493019313248  0.424277366591
 H420   H  0.191616091302  0.198596778054  -0.377125855355
 H421   H  -0.191616091302  -0.493019313248  0.431258053343
 H422   H  -0.424277366591  0.377125855355  0.068741946657
 H423   H  -0.075722633409  -0.006980686752  -0.198596778054
 H424   H  -0.308383908698  0.122874144645  -0.301403221946
 H425   H  -0.493019313248  0.431258053343  -0.191616091302
 H426   H  0.431258053343  -0.191616091302  -0.493019313248
 H427   H  0.122874144645  -0.301403221946  -0.308383908698
 H428   H  0.068741946657  -0.424277366591  0.377125855355
 H429   H  0.377125855355  0.068741946657  -0.424277366591
 H430   H  -0.198596778054  -0.075722633409  -0.006980686752
 H431   H  -0.006980686752  -0.198596778054  -0.075722633409
 H432   H  -0.301403221946  -0.308383908698  0.122874144645
 C433   C  0.001040593965  0.330688845475  -0.079584075396
 C434   C  -0.089727079130  0.080624669361  -0.420415924604
 C435   C  0.498959406035  0.419375330639  0.329648251509
 C436   C  -0.410272920870  0.169311154525  0.170351748491
 C437   C  -0.079584075396  0.001040593965  0.330688845475
 C438   C  0.330688845475  -0.079584075396  0.001040593965
 C439   C  0.170351748491  -0.410272920870  0.169311154525
 C440   C  0.080624669361  -0.420415924604  -0.089727079130
 C441   C  -0.420415924604  -0.089727079130  0.080624669361
 C442   C  0.419375330639  0.329648251509  0.498959406035
 C443   C  0.329648251509  0.498959406035  0.419375330639
 C444   C  0.169311154525  0.170351748491  -0.410272920870
 C445   C  -0.169311154525  -0.498959406035  0.420415924604
 C446   C  -0.419375330639  0.410272920870  0.079584075396
 C447   C  -0.080624669361  -0.001040593965  -0.170351748491
 C448   C  -0.330688845475  0.089727079130  -0.329648251509
 C449   C  -0.498959406035  0.420415924604  -0.169311154525
 C450   C  0.420415924604  -0.169311154525  -0.498959406035
 C451   C  0.089727079130  -0.329648251509  -0.330688845475
 C452   C  0.079584075396  -0.419375330639  0.410272920870
 C453   C  0.410272920870  0.079584075396  -0.419375330639
 C454   C  -0.170351748491  -0.080624669361  -0.001040593965
 C455   C  -0.001040593965  -0.170351748491  -0.080624669361
 C456   C  -0.329648251509  -0.330688845475  0.089727079130
 C457   C  -0.028745496632  0.313806356619  -0.123869613122
 C458   C  -0.062324030259  0.095124116490  -0.376130386878
 C459   C  -0.471254503368  0.404875883510  0.342551853251
 C460   C  -0.437675969741  0.186193643381  0.157448146749
 C461   C  -0.123869613122  -0.028745496632  0.313806356619
 C462   C  0.313806356619  -0.123869613122  -0.028745496632
 C463   C  0.157448146749  -0.437675969741  0.186193643381
 C464   C  0.095124116490  -0.376130386878  -0.062324030259
 C465   C  -0.376130386878  -0.062324030259  0.095124116490
 C466   C  0.404875883510  0.342551853251  -0.471254503368
 C467   C  0.342551853251  -0.471254503368  0.404875883510
 C468   C  0.186193643381  0.157448146749  -0.437675969741
 C469   C  -0.186193643381  0.471254503368  0.376130386878
 C470   C  -0.404875883510  0.437675969741  0.123869613122
 C471   C  -0.095124116490  0.028745496632  -0.157448146749
 C472   C  -0.313806356619  0.062324030259  -0.342551853251
 C473   C  0.471254503368  0.376130386878  -0.186193643381
 C474   C  0.376130386878  -0.186193643381  0.471254503368
 C475   C  0.062324030259  -0.342551853251  -0.313806356619
 C476   C  0.123869613122  -0.404875883510  0.437675969741
 C477   C  0.437675969741  0.123869613122  -0.404875883510
 C478   C  -0.157448146749  -0.095124116490  0.028745496632
 C479   C  0.028745496632  -0.157448146749  -0.095124116490
 C480   C  -0.342551853251  -0.313806356619  0.062324030259
 C481   C  -0.010567257106  0.388502696059  -0.107377119834
 C482   C  -0.004120184107  0.096809862728  -0.392622880166
 C483   C  -0.489432742894  0.403190137272  0.399069953165
 C484   C  -0.495879815893  0.111497303941  0.100930046835
 C485   C  -0.107377119834  -0.010567257106  0.388502696059
 C486   C  0.388502696059  -0.107377119834  -0.010567257106
 C487   C  0.100930046835  -0.495879815893  0.111497303941
 C488   C  0.096809862728  -0.392622880166  -0.004120184107
 C489   C  -0.392622880166  -0.004120184107  0.096809862728
 C490   C  0.403190137272  0.399069953165  -0.489432742894
 C491   C  0.399069953165  -0.489432742894  0.403190137272
 C492   C  0.111497303941  0.100930046835  -0.495879815893
 C493   C  -0.111497303941  0.489432742894  0.392622880166
 C494   C  -0.403190137272  0.495879815893  0.107377119834
 C495   C  -0.096809862728  0.010567257106  -0.100930046835
 C496   C  -0.388502696059  0.004120184107  -0.399069953165
 C497   C  0.489432742894  0.392622880166  -0.111497303941
 C498   C  0.392622880166  -0.111497303941  0.489432742894
 C499   C  0.004120184107  -0.399069953165  -0.388502696059
 C500   C  0.107377119834  -0.403190137272  0.495879815893
 C501   C  0.495879815893  0.107377119834  -0.403190137272
 C502   C  -0.100930046835  -0.096809862728  0.010567257106
 C503   C  0.010567257106  -0.100930046835  -0.096809862728
 C504   C  -0.399069953165  -0.388502696059  0.004120184107
 B505   B  0.045372458097  0.455124551698  -0.029910325694
 B506   B  -0.014965122608  0.075282783791  -0.470089674306
 B507   B  0.454627541903  0.424717216209  0.409752093601
 B508   B  -0.485034877392  0.044875448302  0.090247906399
 B509   B  -0.029910325694  0.045372458097  0.455124551698
 B510   B  0.455124551698  -0.029910325694  0.045372458097
 B511   B  0.090247906399  -0.485034877392  0.044875448302
 B512   B  0.075282783791  -0.470089674306  -0.014965122608
 B513   B  -0.470089674306  -0.014965122608  0.075282783791
 B514   B  0.424717216209  0.409752093601  0.454627541903
 B515   B  0.409752093601  0.454627541903  0.424717216209
 B516   B  0.044875448302  0.090247906399  -0.485034877392
 B517   B  -0.044875448302  -0.454627541903  0.470089674306
 B518   B  -0.424717216209  0.485034877392  0.029910325694
 B519   B  -0.075282783791  -0.045372458097  -0.090247906399
 B520   B  -0.455124551698  0.014965122608  -0.409752093601
 B521   B  -0.454627541903  0.470089674306  -0.044875448302
 B522   B  0.470089674306  -0.044875448302  -0.454627541903
 B523   B  0.014965122608  -0.409752093601  -0.455124551698
 B524   B  0.029910325694  -0.424717216209  0.485034877392
 B525   B  0.485034877392  0.029910325694  -0.424717216209
 B526   B  -0.090247906399  -0.075282783791  -0.045372458097
 B527   B  -0.045372458097  -0.090247906399  -0.075282783791
 B528   B  -0.409752093601  -0.455124551698  0.014965122608
 C529   C  0.375000000000  0.250000000000  -0.375000000000
 C530   C  0.125000000000  -0.250000000000  -0.125000000000
 C531   C  -0.375000000000  0.375000000000  0.250000000000
 C532   C  0.250000000000  -0.375000000000  0.375000000000
 C533   C  -0.250000000000  -0.125000000000  0.125000000000
 C534   C  -0.125000000000  0.125000000000  -0.250000000000
