data_MSUCOF-4_BULK_OPT_DZ_optimized.outout

_cell_length_a                         37.21680885
_cell_length_b                         37.21680885
_cell_length_c                         37.21680885
_cell_angle_alpha                      109.47122100
_cell_angle_beta                       109.47122100
_cell_angle_gamma                      109.47122100
_symmetry_space_group_name_H-M         'P 1'
_symmetry_Int_Tables_number            1

loop_
_symmetry_equiv_pos_as_xyz
   'x, y, z'

loop_
   _atom_site_label
   _atom_site_type_symbol
   _atom_site_fract_x
   _atom_site_fract_y
   _atom_site_fract_z
 H001   H  0.416549107518  0.021201200607  0.079078313623
 H002   H  0.442122886984  0.337470793895  0.420921686377
 H003   H  0.083450892482  0.162529206105  -0.395347906911
 H004   H  0.057877113016  0.478798799393  -0.104652093089
 H005   H  0.079078313623  0.416549107518  0.021201200607
 H006   H  0.021201200607  0.079078313623  0.416549107518
 H007   H  -0.104652093089  0.057877113016  0.478798799393
 H008   H  0.337470793895  0.420921686377  0.442122886984
 H009   H  0.420921686377  0.442122886984  0.337470793895
 H010   H  0.162529206105  -0.395347906911  0.083450892482
 H011   H  -0.395347906911  0.083450892482  0.162529206105
 H012   H  0.478798799393  -0.104652093089  0.057877113016
 H013   H  -0.478798799393  -0.083450892482  -0.420921686377
 H014   H  -0.162529206105  -0.057877113016  -0.079078313623
 H015   H  -0.337470793895  -0.416549107518  0.104652093089
 H016   H  -0.021201200607  -0.442122886984  0.395347906911
 H017   H  -0.083450892482  -0.420921686377  -0.478798799393
 H018   H  -0.420921686377  -0.478798799393  -0.083450892482
 H019   H  -0.442122886984  0.395347906911  -0.021201200607
 H020   H  -0.079078313623  -0.162529206105  -0.057877113016
 H021   H  -0.057877113016  -0.079078313623  -0.162529206105
 H022   H  0.104652093089  -0.337470793895  -0.416549107518
 H023   H  -0.416549107518  0.104652093089  -0.337470793895
 H024   H  0.395347906911  -0.021201200607  -0.442122886984
 H025   H  0.341375178012  0.008432779682  0.079223821175
 H026   H  0.429208958507  0.262151356837  0.420776178825
 H027   H  0.158624821988  0.237848643163  -0.332942398330
 H028   H  0.070791041493  0.491567220318  -0.167057601670
 H029   H  0.079223821175  0.341375178012  0.008432779682
 H030   H  0.008432779682  0.079223821175  0.341375178012
 H031   H  -0.167057601670  0.070791041493  0.491567220318
 H032   H  0.262151356837  0.420776178825  0.429208958507
 H033   H  0.420776178825  0.429208958507  0.262151356837
 H034   H  0.237848643163  -0.332942398330  0.158624821988
 H035   H  -0.332942398330  0.158624821988  0.237848643163
 H036   H  0.491567220318  -0.167057601670  0.070791041493
 H037   H  -0.491567220318  -0.158624821988  -0.420776178825
 H038   H  -0.237848643163  -0.070791041493  -0.079223821175
 H039   H  -0.262151356837  -0.341375178012  0.167057601670
 H040   H  -0.008432779682  -0.429208958507  0.332942398330
 H041   H  -0.158624821988  -0.420776178825  -0.491567220318
 H042   H  -0.420776178825  -0.491567220318  -0.158624821988
 H043   H  -0.429208958507  0.332942398330  -0.008432779682
 H044   H  -0.079223821175  -0.237848643163  -0.070791041493
 H045   H  -0.070791041493  -0.079223821175  -0.237848643163
 H046   H  0.167057601670  -0.262151356837  -0.341375178012
 H047   H  -0.341375178012  0.167057601670  -0.262151356837
 H048   H  0.332942398330  -0.008432779682  -0.429208958507
 C049   C  0.312507573516  -0.059249013453  0.025494770952
 C050   C  0.415256215595  0.287012802563  0.474505229048
 C051   C  0.187492426485  0.212987197436  -0.371756586969
 C052   C  0.084743784405  -0.440750986547  -0.128243413031
 C053   C  0.025494770952  0.312507573516  -0.059249013453
 C054   C  -0.059249013453  0.025494770952  0.312507573516
 C055   C  -0.128243413031  0.084743784405  -0.440750986547
 C056   C  0.287012802563  0.474505229048  0.415256215595
 C057   C  0.474505229048  0.415256215595  0.287012802563
 C058   C  0.212987197436  -0.371756586969  0.187492426485
 C059   C  -0.371756586969  0.187492426485  0.212987197436
 C060   C  -0.440750986547  -0.128243413031  0.084743784405
 C061   C  0.440750986547  -0.187492426485  -0.474505229048
 C062   C  -0.212987197436  -0.084743784405  -0.025494770952
 C063   C  -0.287012802563  -0.312507573516  0.128243413031
 C064   C  0.059249013453  -0.415256215595  0.371756586969
 C065   C  -0.187492426485  -0.474505229048  0.440750986547
 C066   C  -0.474505229048  0.440750986547  -0.187492426485
 C067   C  -0.415256215595  0.371756586969  0.059249013453
 C068   C  -0.025494770952  -0.212987197436  -0.084743784405
 C069   C  -0.084743784405  -0.025494770952  -0.212987197436
 C070   C  0.128243413031  -0.287012802563  -0.312507573516
 C071   C  -0.312507573516  0.128243413031  -0.287012802563
 C072   C  0.371756586969  0.059249013453  -0.415256215595
 C073   C  0.384886697784  -0.008992463571  0.057833460625
 C074   C  0.433174075804  0.327053237159  0.442166539375
 C075   C  0.115113302216  0.172946762841  -0.393879161354
 C076   C  0.066825924196  -0.491007536429  -0.106120838646
 C077   C  0.057833460625  0.384886697784  -0.008992463571
 C078   C  -0.008992463571  0.057833460625  0.384886697784
 C079   C  -0.106120838646  0.066825924196  -0.491007536429
 C080   C  0.327053237159  0.442166539375  0.433174075804
 C081   C  0.442166539375  0.433174075804  0.327053237159
 C082   C  0.172946762841  -0.393879161354  0.115113302216
 C083   C  -0.393879161354  0.115113302216  0.172946762841
 C084   C  -0.491007536429  -0.106120838646  0.066825924196
 C085   C  0.491007536429  -0.115113302216  -0.442166539375
 C086   C  -0.172946762841  -0.066825924196  -0.057833460625
 C087   C  -0.327053237159  -0.384886697784  0.106120838646
 C088   C  0.008992463571  -0.433174075804  0.393879161354
 C089   C  -0.115113302216  -0.442166539375  0.491007536429
 C090   C  -0.442166539375  0.491007536429  -0.115113302216
 C091   C  -0.433174075804  0.393879161354  0.008992463571
 C092   C  -0.057833460625  -0.172946762841  -0.066825924196
 C093   C  -0.066825924196  -0.057833460625  -0.172946762841
 C094   C  0.106120838646  -0.327053237159  -0.384886697784
 C095   C  -0.384886697784  0.106120838646  -0.327053237159
 C096   C  0.393879161354  0.008992463571  -0.433174075804
 C097   C  0.345579282219  -0.015798537839  0.057620750361
 C098   C  0.426580711800  0.287958531857  0.442379249639
 C099   C  0.154420717781  0.212041468143  -0.361377820058
 C100   C  0.073419288200  -0.484201462161  -0.138622179943
 C101   C  0.057620750361  0.345579282219  -0.015798537839
 C102   C  -0.015798537839  0.057620750361  0.345579282219
 C103   C  -0.138622179943  0.073419288200  -0.484201462161
 C104   C  0.287958531857  0.442379249639  0.426580711800
 C105   C  0.442379249639  0.426580711800  0.287958531857
 C106   C  0.212041468143  -0.361377820058  0.154420717781
 C107   C  -0.361377820058  0.154420717781  0.212041468143
 C108   C  -0.484201462161  -0.138622179943  0.073419288200
 C109   C  0.484201462161  -0.154420717781  -0.442379249639
 C110   C  -0.212041468143  -0.073419288200  -0.057620750361
 C111   C  -0.287958531857  -0.345579282219  0.138622179943
 C112   C  0.015798537839  -0.426580711800  0.361377820058
 C113   C  -0.154420717781  -0.442379249639  0.484201462161
 C114   C  -0.442379249639  0.484201462161  -0.154420717781
 C115   C  -0.426580711800  0.361377820058  0.015798537839
 C116   C  -0.057620750361  -0.212041468143  -0.073419288200
 C117   C  -0.073419288200  -0.057620750361  -0.212041468143
 C118   C  0.138622179943  -0.287958531857  -0.345579282219
 C119   C  -0.345579282219  0.138622179943  -0.287958531857
 C120   C  0.361377820058  0.015798537839  -0.426580711800
 H121   H  0.278895453077  -0.075053610147  0.018929621385
 H122   H  0.406016768468  0.259965831691  0.481070378615
 H123   H  0.221104546923  0.240034168309  -0.353949063224
 H124   H  0.093983231532  -0.424946389853  -0.146050936776
 H125   H  0.018929621385  0.278895453077  -0.075053610147
 H126   H  -0.075053610147  0.018929621385  0.278895453077
 H127   H  -0.146050936776  0.093983231532  -0.424946389853
 H128   H  0.259965831691  0.481070378615  0.406016768468
 H129   H  0.481070378615  0.406016768468  0.259965831691
 H130   H  0.240034168309  -0.353949063224  0.221104546923
 H131   H  -0.353949063224  0.221104546923  0.240034168309
 H132   H  -0.424946389853  -0.146050936776  0.093983231532
 H133   H  0.424946389853  -0.221104546923  -0.481070378615
 H134   H  -0.240034168309  -0.093983231532  -0.018929621385
 H135   H  -0.259965831691  -0.278895453077  0.146050936776
 H136   H  0.075053610147  -0.406016768468  0.353949063224
 H137   H  -0.221104546923  -0.481070378615  0.424946389853
 H138   H  -0.481070378615  0.424946389853  -0.221104546923
 H139   H  -0.406016768468  0.353949063224  0.075053610147
 H140   H  -0.018929621385  -0.240034168309  -0.093983231532
 H141   H  -0.093983231532  -0.018929621385  -0.240034168309
 H142   H  0.146050936776  -0.259965831691  -0.278895453077
 H143   H  -0.278895453077  0.146050936776  -0.259965831691
 H144   H  0.353949063224  0.075053610147  -0.406016768468
 O145   O  0.471450299595  0.015888805508  0.056963714209
 O146   O  0.458925091298  0.414486585386  0.443036285791
 O147   O  0.028549700405  0.085513414614  -0.455561494088
 O148   O  0.041074908702  0.484111194492  -0.044438505912
 O149   O  0.056963714209  0.471450299595  0.015888805508
 O150   O  0.015888805508  0.056963714209  0.471450299595
 O151   O  -0.044438505912  0.041074908702  0.484111194492
 O152   O  0.414486585386  0.443036285791  0.458925091298
 O153   O  0.443036285791  0.458925091298  0.414486585386
 O154   O  0.085513414614  -0.455561494088  0.028549700405
 O155   O  -0.455561494088  0.028549700405  0.085513414614
 O156   O  0.484111194492  -0.044438505912  0.041074908702
 O157   O  -0.484111194492  -0.028549700405  -0.443036285791
 O158   O  -0.085513414614  -0.041074908702  -0.056963714209
 O159   O  -0.414486585386  -0.471450299595  0.044438505912
 O160   O  -0.015888805508  -0.458925091298  0.455561494088
 O161   O  -0.028549700405  -0.443036285791  -0.484111194492
 O162   O  -0.443036285791  -0.484111194492  -0.028549700405
 O163   O  -0.458925091298  0.455561494088  -0.015888805508
 O164   O  -0.056963714209  -0.085513414614  -0.041074908702
 O165   O  -0.041074908702  -0.056963714209  -0.085513414614
 O166   O  0.044438505912  -0.414486585386  -0.471450299595
 O167   O  -0.471450299595  0.044438505912  -0.414486585386
 O168   O  0.455561494088  -0.015888805508  -0.458925091298
 H169   H  0.166676386408  -0.159911499854  -0.093247157909
 H170   H  0.433335658055  0.259923544317  -0.406752842091
 H171   H  0.333323613592  0.240076455683  -0.326587886262
 H172   H  0.066664341945  -0.340088500146  -0.173412113738
 H173   H  -0.093247157909  0.166676386408  -0.159911499854
 H174   H  -0.159911499854  -0.093247157909  0.166676386408
 H175   H  -0.173412113738  0.066664341945  -0.340088500146
 H176   H  0.259923544317  -0.406752842091  0.433335658055
 H177   H  -0.406752842091  0.433335658055  0.259923544317
 H178   H  0.240076455683  -0.326587886262  0.333323613592
 H179   H  -0.326587886262  0.333323613592  0.240076455683
 H180   H  -0.340088500146  -0.173412113738  0.066664341945
 H181   H  0.340088500146  -0.333323613592  0.406752842091
 H182   H  -0.240076455683  -0.066664341945  0.093247157909
 H183   H  -0.259923544317  -0.166676386408  0.173412113738
 H184   H  0.159911499854  -0.433335658055  0.326587886262
 H185   H  -0.333323613592  0.406752842091  0.340088500146
 H186   H  0.406752842091  0.340088500146  -0.333323613592
 H187   H  -0.433335658055  0.326587886262  0.159911499854
 H188   H  0.093247157909  -0.240076455683  -0.066664341945
 H189   H  -0.066664341945  0.093247157909  -0.240076455683
 H190   H  0.173412113738  -0.259923544317  -0.166676386408
 H191   H  -0.166676386408  0.173412113738  -0.259923544317
 H192   H  0.326587886262  0.159911499854  -0.433335658055
 H193   H  0.328619233137  -0.167994719300  -0.067524492785
 H194   H  0.399529773485  0.396143725922  -0.432475507215
 H195   H  0.171380766863  0.103856274078  -0.496613952437
 H196   H  0.100470226515  -0.332005280700  -0.003386047563
 H197   H  -0.067524492785  0.328619233137  -0.167994719300
 H198   H  -0.167994719300  -0.067524492785  0.328619233137
 H199   H  -0.003386047563  0.100470226515  -0.332005280700
 H200   H  0.396143725922  -0.432475507215  0.399529773485
 H201   H  -0.432475507215  0.399529773485  0.396143725922
 H202   H  0.103856274078  -0.496613952437  0.171380766863
 H203   H  -0.496613952437  0.171380766863  0.103856274078
 H204   H  -0.332005280700  -0.003386047563  0.100470226515
 H205   H  0.332005280700  -0.171380766863  0.432475507215
 H206   H  -0.103856274078  -0.100470226515  0.067524492785
 H207   H  -0.396143725922  -0.328619233137  0.003386047563
 H208   H  0.167994719300  -0.399529773485  0.496613952437
 H209   H  -0.171380766863  0.432475507215  0.332005280700
 H210   H  0.432475507215  0.332005280700  -0.171380766863
 H211   H  -0.399529773485  0.496613952437  0.167994719300
 H212   H  0.067524492785  -0.103856274078  -0.100470226515
 H213   H  -0.100470226515  0.067524492785  -0.103856274078
 H214   H  0.003386047563  -0.396143725922  -0.328619233137
 H215   H  -0.328619233137  0.003386047563  -0.396143725922
 H216   H  0.496613952437  0.167994719300  -0.399529773485
 H217   H  0.194152224265  -0.263893433501  -0.097409181439
 H218   H  0.333515747938  0.291561405704  -0.402590818561
 H219   H  0.305847775735  0.208438594296  -0.458045657767
 H220   H  0.166484252062  -0.236106566499  -0.041954342233
 H221   H  -0.097409181439  0.194152224265  -0.263893433501
 H222   H  -0.263893433501  -0.097409181439  0.194152224265
 H223   H  -0.041954342233  0.166484252062  -0.236106566499
 H224   H  0.291561405704  -0.402590818561  0.333515747938
 H225   H  -0.402590818561  0.333515747938  0.291561405704
 H226   H  0.208438594296  -0.458045657767  0.305847775735
 H227   H  -0.458045657767  0.305847775735  0.208438594296
 H228   H  -0.236106566499  -0.041954342233  0.166484252062
 H229   H  0.236106566499  -0.305847775735  0.402590818561
 H230   H  -0.208438594296  -0.166484252062  0.097409181439
 H231   H  -0.291561405704  -0.194152224265  0.041954342233
 H232   H  0.263893433501  -0.333515747938  0.458045657767
 H233   H  -0.305847775735  0.402590818561  0.236106566499
 H234   H  0.402590818561  0.236106566499  -0.305847775735
 H235   H  -0.333515747938  0.458045657767  0.263893433501
 H236   H  0.097409181439  -0.208438594296  -0.166484252062
 H237   H  -0.166484252062  0.097409181439  -0.208438594296
 H238   H  0.041954342233  -0.291561405704  -0.194152224265
 H239   H  -0.194152224265  0.041954342233  -0.291561405704
 H240   H  0.458045657767  0.263893433501  -0.333515747938
 H241   H  0.273781209568  -0.211107516117  -0.057764189446
 H242   H  0.346656673329  0.331545399013  -0.442235810554
 H243   H  0.226218790432  0.168454600987  -0.484888725684
 H244   H  0.153343326671  -0.288892483883  -0.015111274316
 H245   H  -0.057764189446  0.273781209568  -0.211107516117
 H246   H  -0.211107516117  -0.057764189446  0.273781209568
 H247   H  -0.015111274316  0.153343326671  -0.288892483883
 H248   H  0.331545399013  -0.442235810554  0.346656673329
 H249   H  -0.442235810554  0.346656673329  0.331545399013
 H250   H  0.168454600987  -0.484888725684  0.226218790432
 H251   H  -0.484888725684  0.226218790432  0.168454600987
 H252   H  -0.288892483883  -0.015111274316  0.153343326671
 H253   H  0.288892483883  -0.226218790432  0.442235810554
 H254   H  -0.168454600987  -0.153343326671  0.057764189446
 H255   H  -0.331545399013  -0.273781209568  0.015111274316
 H256   H  0.211107516117  -0.346656673329  0.484888725684
 H257   H  -0.226218790432  0.442235810554  0.288892483883
 H258   H  0.442235810554  0.288892483883  -0.226218790432
 H259   H  -0.346656673329  0.484888725684  0.211107516117
 H260   H  0.057764189446  -0.168454600987  -0.153343326671
 H261   H  -0.153343326671  0.057764189446  -0.168454600987
 H262   H  0.015111274316  -0.331545399013  -0.273781209568
 H263   H  -0.273781209568  0.015111274316  -0.331545399013
 H264   H  0.484888725684  0.211107516117  -0.346656673329
 H265   H  0.408044096989  -0.115288426497  -0.028457785925
 H266   H  0.413169359428  0.436501882914  -0.471542214075
 H267   H  0.091955903011  0.063498117086  0.476667476514
 H268   H  0.086830640572  -0.384711573503  0.023332523486
 H269   H  -0.028457785925  0.408044096989  -0.115288426497
 H270   H  -0.115288426497  -0.028457785925  0.408044096989
 H271   H  0.023332523486  0.086830640572  -0.384711573503
 H272   H  0.436501882914  -0.471542214075  0.413169359428
 H273   H  -0.471542214075  0.413169359428  0.436501882914
 H274   H  0.063498117086  0.476667476514  0.091955903011
 H275   H  0.476667476514  0.091955903011  0.063498117086
 H276   H  -0.384711573503  0.023332523486  0.086830640572
 H277   H  0.384711573503  -0.091955903011  0.471542214075
 H278   H  -0.063498117086  -0.086830640572  0.028457785925
 H279   H  -0.436501882914  -0.408044096989  -0.023332523486
 H280   H  0.115288426497  -0.413169359428  -0.476667476514
 H281   H  -0.091955903011  0.471542214075  0.384711573503
 H282   H  0.471542214075  0.384711573503  -0.091955903011
 H283   H  -0.413169359428  -0.476667476514  0.115288426497
 H284   H  0.028457785925  -0.063498117086  -0.086830640572
 H285   H  -0.086830640572  0.028457785925  -0.063498117086
 H286   H  -0.023332523486  -0.436501882914  -0.408044096989
 H287   H  -0.408044096989  -0.023332523486  -0.436501882914
 H288   H  -0.476667476514  0.115288426497  -0.413169359428
 H289   H  0.246109849834  -0.107913191318  -0.056650367165
 H290   H  0.448737175847  0.302760216999  -0.443349632835
 H291   H  0.253890150166  0.197239783001  -0.354023041153
 H292   H  0.051262824153  -0.392086808682  -0.145976958847
 H293   H  -0.056650367165  0.246109849834  -0.107913191318
 H294   H  -0.107913191318  -0.056650367165  0.246109849834
 H295   H  -0.145976958847  0.051262824153  -0.392086808682
 H296   H  0.302760216999  -0.443349632835  0.448737175847
 H297   H  -0.443349632835  0.448737175847  0.302760216999
 H298   H  0.197239783001  -0.354023041153  0.253890150166
 H299   H  -0.354023041153  0.253890150166  0.197239783001
 H300   H  -0.392086808682  -0.145976958847  0.051262824153
 H301   H  0.392086808682  -0.253890150166  0.443349632835
 H302   H  -0.197239783001  -0.051262824153  0.056650367165
 H303   H  -0.302760216999  -0.246109849834  0.145976958847
 H304   H  0.107913191318  -0.448737175847  0.354023041153
 H305   H  -0.253890150166  0.443349632835  0.392086808682
 H306   H  0.443349632835  0.392086808682  -0.253890150166
 H307   H  -0.448737175847  0.354023041153  0.107913191318
 H308   H  0.056650367165  -0.197239783001  -0.051262824153
 H309   H  -0.051262824153  0.056650367165  -0.197239783001
 H310   H  0.145976958847  -0.302760216999  -0.246109849834
 H311   H  -0.246109849834  0.145976958847  -0.302760216999
 H312   H  0.354023041153  0.107913191318  -0.448737175847
 C313   C  0.205497602216  -0.229594340049  -0.088781907523
 C314   C  0.359187567474  0.294279509738  -0.411218092477
 C315   C  0.294502397784  0.205720490261  -0.435091942265
 C316   C  0.140812432526  -0.270405659951  -0.064908057735
 C317   C  -0.088781907523  0.205497602216  -0.229594340049
 C318   C  -0.229594340049  -0.088781907523  0.205497602216
 C319   C  -0.064908057735  0.140812432526  -0.270405659951
 C320   C  0.294279509738  -0.411218092477  0.359187567474
 C321   C  -0.411218092477  0.359187567474  0.294279509738
 C322   C  0.205720490261  -0.435091942265  0.294502397784
 C323   C  -0.435091942265  0.294502397784  0.205720490261
 C324   C  -0.270405659951  -0.064908057735  0.140812432526
 C325   C  0.270405659951  -0.294502397784  0.411218092477
 C326   C  -0.205720490261  -0.140812432526  0.088781907523
 C327   C  -0.294279509738  -0.205497602216  0.064908057735
 C328   C  0.229594340049  -0.359187567474  0.435091942265
 C329   C  -0.294502397784  0.411218092477  0.270405659951
 C330   C  0.411218092477  0.270405659951  -0.294502397784
 C331   C  -0.359187567474  0.435091942265  0.229594340049
 C332   C  0.088781907523  -0.205720490261  -0.140812432526
 C333   C  -0.140812432526  0.088781907523  -0.205720490261
 C334   C  0.064908057735  -0.294279509738  -0.205497602216
 C335   C  -0.205497602216  0.064908057735  -0.294279509738
 C336   C  0.435091942265  0.229594340049  -0.359187567474
 C337   C  0.265832680856  -0.155393500504  -0.053864433885
 C338   C  0.398470933381  0.319697114741  -0.446135566115
 C339   C  0.234167319144  0.180302885259  -0.421226181360
 C340   C  0.101529066619  -0.344606499496  -0.078773818640
 C341   C  -0.053864433885  0.265832680856  -0.155393500504
 C342   C  -0.155393500504  -0.053864433885  0.265832680856
 C343   C  -0.078773818640  0.101529066619  -0.344606499496
 C344   C  0.319697114741  -0.446135566115  0.398470933381
 C345   C  -0.446135566115  0.398470933381  0.319697114741
 C346   C  0.180302885259  -0.421226181360  0.234167319144
 C347   C  -0.421226181360  0.234167319144  0.180302885259
 C348   C  -0.344606499496  -0.078773818640  0.101529066619
 C349   C  0.344606499496  -0.234167319144  0.446135566115
 C350   C  -0.180302885259  -0.101529066619  0.053864433885
 C351   C  -0.319697114741  -0.265832680856  0.078773818640
 C352   C  0.155393500504  -0.398470933381  0.421226181360
 C353   C  -0.234167319144  0.446135566115  0.344606499496
 C354   C  0.446135566115  0.344606499496  -0.234167319144
 C355   C  -0.398470933381  0.421226181360  0.155393500504
 C356   C  0.053864433885  -0.180302885259  -0.101529066619
 C357   C  -0.101529066619  0.053864433885  -0.180302885259
 C358   C  0.078773818640  -0.319697114741  -0.265832680856
 C359   C  -0.265832680856  0.078773818640  -0.319697114741
 C360   C  0.421226181360  0.155393500504  -0.398470933381
 C361   C  0.174323006918  -0.216053916711  -0.099050643848
 C362   C  0.382996727137  0.273373650766  -0.400949356152
 C363   C  0.325676993082  0.226626349234  -0.390376923629
 C364   C  0.117003272863  -0.283946083289  -0.109623076371
 C365   C  -0.099050643848  0.174323006918  -0.216053916711
 C366   C  -0.216053916711  -0.099050643848  0.174323006918
 C367   C  -0.109623076371  0.117003272863  -0.283946083289
 C368   C  0.273373650766  -0.400949356152  0.382996727137
 C369   C  -0.400949356152  0.382996727137  0.273373650766
 C370   C  0.226626349234  -0.390376923629  0.325676993082
 C371   C  -0.390376923629  0.325676993082  0.226626349234
 C372   C  -0.283946083289  -0.109623076371  0.117003272863
 C373   C  0.283946083289  -0.325676993082  0.400949356152
 C374   C  -0.226626349234  -0.117003272863  0.099050643848
 C375   C  -0.273373650766  -0.174323006918  0.109623076371
 C376   C  0.216053916711  -0.382996727137  0.390376923629
 C377   C  -0.325676993082  0.400949356152  0.283946083289
 C378   C  0.400949356152  0.283946083289  -0.325676993082
 C379   C  -0.382996727137  0.390376923629  0.216053916711
 C380   C  0.099050643848  -0.226626349234  -0.117003272863
 C381   C  -0.117003272863  0.099050643848  -0.226626349234
 C382   C  0.109623076371  -0.273373650766  -0.174323006918
 C383   C  -0.174323006918  0.109623076371  -0.273373650766
 C384   C  0.390376923629  0.216053916711  -0.382996727137
 C385   C  0.189907718404  -0.171677225034  -0.086406068936
 C386   C  0.414728843902  0.276313787340  -0.413593931064
 C387   C  0.310092281596  0.223686212660  -0.361584943437
 C388   C  0.085271156098  -0.328322774966  -0.138415056563
 C389   C  -0.086406068936  0.189907718404  -0.171677225034
 C390   C  -0.171677225034  -0.086406068936  0.189907718404
 C391   C  -0.138415056563  0.085271156098  -0.328322774966
 C392   C  0.276313787340  -0.413593931064  0.414728843902
 C393   C  -0.413593931064  0.414728843902  0.276313787340
 C394   C  0.223686212660  -0.361584943437  0.310092281596
 C395   C  -0.361584943437  0.310092281596  0.223686212660
 C396   C  -0.328322774966  -0.138415056563  0.085271156098
 C397   C  0.328322774966  -0.310092281596  0.413593931064
 C398   C  -0.223686212660  -0.085271156098  0.086406068936
 C399   C  -0.276313787340  -0.189907718404  0.138415056563
 C400   C  0.171677225034  -0.414728843902  0.361584943437
 C401   C  -0.310092281596  0.413593931064  0.328322774966
 C402   C  0.413593931064  0.328322774966  -0.310092281596
 C403   C  -0.414728843902  0.361584943437  0.171677225034
 C404   C  0.086406068936  -0.223686212660  -0.085271156098
 C405   C  -0.085271156098  0.086406068936  -0.223686212660
 C406   C  0.138415056563  -0.276313787340  -0.189907718404
 C407   C  -0.189907718404  0.138415056563  -0.276313787340
 C408   C  0.361584943437  0.171677225034  -0.414728843902
 C409   C  0.405214562876  -0.061351742220  0.013747693206
 C410   C  0.424900564574  0.391466869670  0.486252306794
 C411   C  0.094785437124  0.108533130330  -0.466566305096
 C412   C  0.075099435426  -0.438648257780  -0.033433694904
 C413   C  0.013747693206  0.405214562876  -0.061351742220
 C414   C  -0.061351742220  0.013747693206  0.405214562876
 C415   C  -0.033433694904  0.075099435426  -0.438648257780
 C416   C  0.391466869670  0.486252306794  0.424900564574
 C417   C  0.486252306794  0.424900564574  0.391466869670
 C418   C  0.108533130330  -0.466566305096  0.094785437124
 C419   C  -0.466566305096  0.094785437124  0.108533130330
 C420   C  -0.438648257780  -0.033433694904  0.075099435426
 C421   C  0.438648257780  -0.094785437124  -0.486252306794
 C422   C  -0.108533130330  -0.075099435426  -0.013747693206
 C423   C  -0.391466869670  -0.405214562876  0.033433694904
 C424   C  0.061351742220  -0.424900564574  0.466566305096
 C425   C  -0.094785437124  -0.486252306794  0.438648257780
 C426   C  -0.486252306794  0.438648257780  -0.094785437124
 C427   C  -0.424900564574  0.466566305096  0.061351742220
 C428   C  -0.013747693206  -0.108533130330  -0.075099435426
 C429   C  -0.075099435426  -0.013747693206  -0.108533130330
 C430   C  0.033433694904  -0.391466869670  -0.405214562876
 C431   C  -0.405214562876  0.033433694904  -0.391466869670
 C432   C  0.466566305096  0.061351742220  -0.424900564574
 C433   C  0.331296091492  -0.080831618746  0.003863360004
 C434   C  0.415305021251  0.327432731488  0.496136639996
 C435   C  0.168703908509  0.172567268512  -0.412127710237
 C436   C  0.084694978749  -0.419168381254  -0.087872289763
 C437   C  0.003863360004  0.331296091492  -0.080831618746
 C438   C  -0.080831618746  0.003863360004  0.331296091492
 C439   C  -0.087872289763  0.084694978749  -0.419168381254
 C440   C  0.327432731488  0.496136639996  0.415305021251
 C441   C  0.496136639996  0.415305021251  0.327432731488
 C442   C  0.172567268512  -0.412127710237  0.168703908509
 C443   C  -0.412127710237  0.168703908509  0.172567268512
 C444   C  -0.419168381254  -0.087872289763  0.084694978749
 C445   C  0.419168381254  -0.168703908509  -0.496136639996
 C446   C  -0.172567268512  -0.084694978749  -0.003863360004
 C447   C  -0.327432731488  -0.331296091492  0.087872289763
 C448   C  0.080831618746  -0.415305021251  0.412127710237
 C449   C  -0.168703908509  -0.496136639996  0.419168381254
 C450   C  -0.496136639996  0.419168381254  -0.168703908509
 C451   C  -0.415305021251  0.412127710237  0.080831618746
 C452   C  -0.003863360004  -0.172567268512  -0.084694978749
 C453   C  -0.084694978749  -0.003863360004  -0.172567268512
 C454   C  0.087872289763  -0.327432731488  -0.331296091492
 C455   C  -0.331296091492  0.087872289763  -0.327432731488
 C456   C  0.412127710237  0.080831618746  -0.415305021251
 C457   C  0.250284211682  -0.199948224906  -0.066627746092
 C458   C  0.366679521186  0.316911957775  -0.433372253908
 C459   C  0.249715788318  0.183088042225  -0.450232436589
 C460   C  0.133320478814  -0.300051775094  -0.049767563411
 C461   C  -0.066627746092  0.250284211682  -0.199948224906
 C462   C  -0.199948224906  -0.066627746092  0.250284211682
 C463   C  -0.049767563411  0.133320478814  -0.300051775094
 C464   C  0.316911957775  -0.433372253908  0.366679521186
 C465   C  -0.433372253908  0.366679521186  0.316911957775
 C466   C  0.183088042225  -0.450232436589  0.249715788318
 C467   C  -0.450232436589  0.249715788318  0.183088042225
 C468   C  -0.300051775094  -0.049767563411  0.133320478814
 C469   C  0.300051775094  -0.249715788318  0.433372253908
 C470   C  -0.183088042225  -0.133320478814  0.066627746092
 C471   C  -0.316911957775  -0.250284211682  0.049767563411
 C472   C  0.199948224906  -0.366679521186  0.450232436589
 C473   C  -0.249715788318  0.433372253908  0.300051775094
 C474   C  0.433372253908  0.300051775094  -0.249715788318
 C475   C  -0.366679521186  0.450232436589  0.199948224906
 C476   C  0.066627746092  -0.183088042225  -0.133320478814
 C477   C  -0.133320478814  0.066627746092  -0.183088042225
 C478   C  0.049767563411  -0.316911957775  -0.250284211682
 C479   C  -0.250284211682  0.049767563411  -0.316911957775
 C480   C  0.450232436589  0.199948224906  -0.366679521186
 C481   C  0.313194272111  -0.123529423942  -0.029943771630
 C482   C  0.406414347688  0.343138043741  -0.470056228370
 C483   C  0.186805727889  0.156861956259  -0.436723696053
 C484   C  0.093585652312  -0.376470576058  -0.063276303947
 C485   C  -0.029943771630  0.313194272111  -0.123529423942
 C486   C  -0.123529423942  -0.029943771630  0.313194272111
 C487   C  -0.063276303947  0.093585652312  -0.376470576058
 C488   C  0.343138043741  -0.470056228370  0.406414347688
 C489   C  -0.470056228370  0.406414347688  0.343138043741
 C490   C  0.156861956259  -0.436723696053  0.186805727889
 C491   C  -0.436723696053  0.186805727889  0.156861956259
 C492   C  -0.376470576058  -0.063276303947  0.093585652312
 C493   C  0.376470576058  -0.186805727889  0.470056228370
 C494   C  -0.156861956259  -0.093585652312  0.029943771630
 C495   C  -0.343138043741  -0.313194272111  0.063276303947
 C496   C  0.123529423942  -0.406414347688  0.436723696053
 C497   C  -0.186805727889  0.470056228370  0.376470576058
 C498   C  0.470056228370  0.376470576058  -0.186805727889
 C499   C  -0.406414347688  0.436723696053  0.123529423942
 C500   C  0.029943771630  -0.156861956259  -0.093585652312
 C501   C  -0.093585652312  0.029943771630  -0.156861956259
 C502   C  0.063276303947  -0.343138043741  -0.313194272111
 C503   C  -0.313194272111  0.063276303947  -0.343138043741
 C504   C  0.436723696053  0.123529423942  -0.406414347688
 C505   C  0.234707014800  -0.142066975836  -0.064757096897
 C506   C  0.422690121061  0.299464111697  -0.435242903103
 C507   C  0.265292985200  0.200535888303  -0.376773990635
 C508   C  0.077309878939  -0.357933024164  -0.123226009365
 C509   C  -0.064757096897  0.234707014800  -0.142066975836
 C510   C  -0.142066975836  -0.064757096897  0.234707014800
 C511   C  -0.123226009365  0.077309878939  -0.357933024164
 C512   C  0.299464111697  -0.435242903103  0.422690121061
 C513   C  -0.435242903103  0.422690121061  0.299464111697
 C514   C  0.200535888303  -0.376773990635  0.265292985200
 C515   C  -0.376773990635  0.265292985200  0.200535888303
 C516   C  -0.357933024164  -0.123226009365  0.077309878939
 C517   C  0.357933024164  -0.265292985200  0.435242903103
 C518   C  -0.200535888303  -0.077309878939  0.064757096897
 C519   C  -0.299464111697  -0.234707014800  0.123226009365
 C520   C  0.142066975836  -0.422690121061  0.376773990635
 C521   C  -0.265292985200  0.435242903103  0.357933024164
 C522   C  0.435242903103  0.357933024164  -0.265292985200
 C523   C  -0.422690121061  0.376773990635  0.142066975836
 C524   C  0.064757096897  -0.200535888303  -0.077309878939
 C525   C  -0.077309878939  0.064757096897  -0.200535888303
 C526   C  0.123226009365  -0.299464111697  -0.234707014800
 C527   C  -0.234707014800  0.123226009365  -0.299464111697
 C528   C  0.376773990635  0.142066975836  -0.422690121061
 C529   C  0.386685502947  -0.105175362911  -0.019196830263
 C530   C  0.414021467351  0.405882333210  -0.480803169737
 C531   C  0.113314497053  0.094117666790  -0.491860865858
 C532   C  0.085978532649  -0.394824637089  -0.008139134142
 C533   C  -0.019196830263  0.386685502947  -0.105175362911
 C534   C  -0.105175362911  -0.019196830263  0.386685502947
 C535   C  -0.008139134142  0.085978532649  -0.394824637089
 C536   C  0.405882333210  -0.480803169737  0.414021467351
 C537   C  -0.480803169737  0.414021467351  0.405882333210
 C538   C  0.094117666790  -0.491860865858  0.113314497053
 C539   C  -0.491860865858  0.113314497053  0.094117666790
 C540   C  -0.394824637089  -0.008139134142  0.085978532649
 C541   C  0.394824637089  -0.113314497053  0.480803169737
 C542   C  -0.094117666790  -0.085978532649  0.019196830263
 C543   C  -0.405882333210  -0.386685502947  0.008139134142
 C544   C  0.105175362911  -0.414021467351  0.491860865858
 C545   C  -0.113314497053  0.480803169737  0.394824637089
 C546   C  0.480803169737  0.394824637089  -0.113314497053
 C547   C  -0.414021467351  0.491860865858  0.105175362911
 C548   C  0.019196830263  -0.094117666790  -0.085978532649
 C549   C  -0.085978532649  0.019196830263  -0.094117666790
 C550   C  0.008139134142  -0.405882333210  -0.386685502947
 C551   C  -0.386685502947  0.008139134142  -0.405882333210
 C552   C  0.491860865858  0.105175362911  -0.414021467351
 C553   C  0.376790708080  -0.049721192239  0.024698198396
 C554   C  0.425580609364  0.352092509684  0.475301801604
 C555   C  0.123209291920  0.147907490316  -0.426511900320
 C556   C  0.074419390636  -0.450278807761  -0.073488099680
 C557   C  0.024698198396  0.376790708080  -0.049721192239
 C558   C  -0.049721192239  0.024698198396  0.376790708080
 C559   C  -0.073488099680  0.074419390636  -0.450278807761
 C560   C  0.352092509684  0.475301801604  0.425580609364
 C561   C  0.475301801604  0.425580609364  0.352092509684
 C562   C  0.147907490316  -0.426511900320  0.123209291920
 C563   C  -0.426511900320  0.123209291920  0.147907490316
 C564   C  -0.450278807761  -0.073488099680  0.074419390636
 C565   C  0.450278807761  -0.123209291920  -0.475301801604
 C566   C  -0.147907490316  -0.074419390636  -0.024698198396
 C567   C  -0.352092509684  -0.376790708080  0.073488099680
 C568   C  0.049721192239  -0.425580609364  0.426511900320
 C569   C  -0.123209291920  -0.475301801604  0.450278807761
 C570   C  -0.475301801604  0.450278807761  -0.123209291920
 C571   C  -0.425580609364  0.426511900320  0.049721192239
 C572   C  -0.024698198396  -0.147907490316  -0.074419390636
 C573   C  -0.074419390636  -0.024698198396  -0.147907490316
 C574   C  0.073488099680  -0.352092509684  -0.376790708080
 C575   C  -0.376790708080  0.073488099680  -0.352092509684
 C576   C  0.426511900320  0.049721192239  -0.425580609364
 B577   B  0.454930206101  -0.028938814971  0.037523948449
 B578   B  0.433537236580  0.417406257652  0.462476051551
 B579   B  0.045069793899  0.082593742349  -0.483869021071
 B580   B  0.066462763420  -0.471061185030  -0.016130978929
 B581   B  0.037523948449  0.454930206101  -0.028938814971
 B582   B  -0.028938814971  0.037523948449  0.454930206101
 B583   B  -0.016130978929  0.066462763420  -0.471061185030
 B584   B  0.417406257652  0.462476051551  0.433537236580
 B585   B  0.462476051551  0.433537236580  0.417406257652
 B586   B  0.082593742349  -0.483869021071  0.045069793899
 B587   B  -0.483869021071  0.045069793899  0.082593742349
 B588   B  -0.471061185030  -0.016130978929  0.066462763420
 B589   B  0.471061185030  -0.045069793899  -0.462476051551
 B590   B  -0.082593742349  -0.066462763420  -0.037523948449
 B591   B  -0.417406257652  -0.454930206101  0.016130978929
 B592   B  0.028938814971  -0.433537236580  0.483869021071
 B593   B  -0.045069793899  -0.462476051551  0.471061185030
 B594   B  -0.462476051551  0.471061185030  -0.045069793899
 B595   B  -0.433537236580  0.483869021071  0.028938814971
 B596   B  -0.037523948449  -0.082593742349  -0.066462763420
 B597   B  -0.066462763420  -0.037523948449  -0.082593742349
 B598   B  0.016130978929  -0.417406257652  -0.454930206101
 B599   B  -0.454930206101  0.016130978929  -0.417406257652
 B600   B  0.483869021071  0.028938814971  -0.433537236580
 C601   C  0.342136548323  -0.135073715814  -0.040784841169
 C602   C  0.405711125356  0.382921389493  -0.459215158831
 C603   C  0.157863451677  0.117078610507  -0.477210264137
 C604   C  0.094288874644  -0.364926284187  -0.022789735863
 C605   C  -0.040784841169  0.342136548323  -0.135073715814
 C606   C  -0.135073715814  -0.040784841169  0.342136548323
 C607   C  -0.022789735863  0.094288874644  -0.364926284187
 C608   C  0.382921389493  -0.459215158831  0.405711125356
 C609   C  -0.459215158831  0.405711125356  0.382921389493
 C610   C  0.117078610507  -0.477210264137  0.157863451677
 C611   C  -0.477210264137  0.157863451677  0.117078610507
 C612   C  -0.364926284187  -0.022789735863  0.094288874644
 C613   C  0.364926284187  -0.157863451677  0.459215158831
 C614   C  -0.117078610507  -0.094288874644  0.040784841169
 C615   C  -0.382921389493  -0.342136548323  0.022789735863
 C616   C  0.135073715814  -0.405711125356  0.477210264137
 C617   C  -0.157863451677  0.459215158831  0.364926284187
 C618   C  0.459215158831  0.364926284187  -0.157863451677
 C619   C  -0.405711125356  0.477210264137  0.135073715814
 C620   C  0.040784841169  -0.117078610507  -0.094288874644
 C621   C  -0.094288874644  0.040784841169  -0.117078610507
 C622   C  0.022789735863  -0.382921389493  -0.342136548323
 C623   C  -0.342136548323  0.022789735863  -0.382921389493
 C624   C  0.477210264137  0.135073715814  -0.405711125356
 C625   C  0.250000000000  -0.375000000000  0.375000000000
 C626   C  -0.250000000000  -0.125000000000  0.125000000000
 C627   C  0.375000000000  0.250000000000  -0.375000000000
 C628   C  -0.375000000000  0.375000000000  0.250000000000
 C629   C  0.125000000000  -0.250000000000  -0.125000000000
 C630   C  -0.125000000000  0.125000000000  -0.250000000000
