data_MSUCOF-4-CoCp_BULK_OPTGEOM_DZ_optimized.outout

_cell_length_a                         37.29871711
_cell_length_b                         37.29871711
_cell_length_c                         37.29871711
_cell_angle_alpha                      109.47122100
_cell_angle_beta                       109.47122100
_cell_angle_gamma                      109.47122100
_symmetry_space_group_name_H-M         'P 1'
_symmetry_Int_Tables_number            1

loop_
_symmetry_equiv_pos_as_xyz
   'x, y, z'

loop_
   _atom_site_label
   _atom_site_type_symbol
   _atom_site_fract_x
   _atom_site_fract_y
   _atom_site_fract_z
 H001   H  0.052267516858  0.009897809430  0.331256247701
 H002   H  0.178641561729  -0.278988730844  0.168743752299
 H003   H  0.447732483142  -0.221011269156  -0.042369707427
 H004   H  0.321358438271  0.490102190569  -0.457630292573
 H005   H  0.331256247701  0.052267516858  0.009897809430
 H006   H  0.009897809430  0.331256247701  0.052267516858
 H007   H  -0.457630292573  0.321358438271  0.490102190569
 H008   H  -0.278988730844  0.168743752299  0.178641561729
 H009   H  0.168743752299  0.178641561729  -0.278988730844
 H010   H  -0.221011269156  -0.042369707427  0.447732483142
 H011   H  -0.042369707427  0.447732483142  -0.221011269156
 H012   H  0.490102190569  -0.457630292573  0.321358438271
 H013   H  -0.490102190569  -0.447732483142  -0.168743752299
 H014   H  0.221011269156  -0.321358438271  -0.331256247701
 H015   H  0.278988730844  -0.052267516858  0.457630292573
 H016   H  -0.009897809430  -0.178641561729  0.042369707427
 H017   H  -0.447732483142  -0.168743752299  -0.490102190569
 H018   H  -0.168743752299  -0.490102190569  -0.447732483142
 H019   H  -0.178641561729  0.042369707427  -0.009897809430
 H020   H  -0.331256247701  0.221011269156  -0.321358438271
 H021   H  -0.321358438271  -0.331256247701  0.221011269156
 H022   H  0.457630292573  0.278988730844  -0.052267516858
 H023   H  -0.052267516858  0.457630292573  0.278988730844
 H024   H  0.042369707427  -0.009897809430  -0.178641561729
 H025   H  -0.078122002095  -0.088227438609  0.293953418988
 H026   H  0.117819142403  -0.372075421083  0.206046581012
 H027   H  -0.421877997905  -0.127924578917  -0.010105436514
 H028   H  0.382180857597  -0.411772561391  -0.489894563486
 H029   H  0.293953418988  -0.078122002095  -0.088227438609
 H030   H  -0.088227438609  0.293953418988  -0.078122002095
 H031   H  -0.489894563486  0.382180857597  -0.411772561391
 H032   H  -0.372075421083  0.206046581012  0.117819142403
 H033   H  0.206046581012  0.117819142403  -0.372075421083
 H034   H  -0.127924578917  -0.010105436514  -0.421877997905
 H035   H  -0.010105436514  -0.421877997905  -0.127924578917
 H036   H  -0.411772561391  -0.489894563486  0.382180857597
 H037   H  0.411772561391  0.421877997905  -0.206046581012
 H038   H  0.127924578917  -0.382180857597  -0.293953418988
 H039   H  0.372075421083  0.078122002095  0.489894563486
 H040   H  0.088227438609  -0.117819142403  0.010105436514
 H041   H  0.421877997905  -0.206046581012  0.411772561391
 H042   H  -0.206046581012  0.411772561391  0.421877997905
 H043   H  -0.117819142403  0.010105436514  0.088227438609
 H044   H  -0.293953418988  0.127924578917  -0.382180857597
 H045   H  -0.382180857597  -0.293953418988  0.127924578917
 H046   H  0.489894563486  0.372075421083  0.078122002095
 H047   H  0.078122002095  0.489894563486  0.372075421083
 H048   H  0.010105436514  0.088227438609  -0.117819142403
 H049   H  -0.027933278603  -0.046960385576  0.381851279682
 H050   H  0.071188334742  -0.409784558285  0.118148720318
 H051   H  -0.472066721397  -0.090215441715  -0.019027106972
 H052   H  0.428811665258  -0.453039614424  -0.480972893028
 H053   H  0.381851279682  -0.027933278603  -0.046960385576
 H054   H  -0.046960385576  0.381851279682  -0.027933278603
 H055   H  -0.480972893028  0.428811665258  -0.453039614424
 H056   H  -0.409784558285  0.118148720318  0.071188334742
 H057   H  0.118148720318  0.071188334742  -0.409784558285
 H058   H  -0.090215441715  -0.019027106972  -0.472066721397
 H059   H  -0.019027106972  -0.472066721397  -0.090215441715
 H060   H  -0.453039614424  -0.480972893028  0.428811665258
 H061   H  0.453039614424  0.472066721397  -0.118148720318
 H062   H  0.090215441715  -0.428811665258  -0.381851279682
 H063   H  0.409784558285  0.027933278603  0.480972893028
 H064   H  0.046960385576  -0.071188334742  0.019027106972
 H065   H  0.472066721397  -0.118148720318  0.453039614424
 H066   H  -0.118148720318  0.453039614424  0.472066721397
 H067   H  -0.071188334742  0.019027106972  0.046960385576
 H068   H  -0.381851279682  0.090215441715  -0.428811665258
 H069   H  -0.428811665258  -0.381851279682  0.090215441715
 H070   H  0.480972893028  0.409784558285  0.027933278603
 H071   H  0.027933278603  0.480972893028  0.409784558285
 H072   H  0.019027106972  0.046960385576  -0.071188334742
 H073   H  -0.028885891203  -0.051922697585  0.262893323964
 H074   H  0.185183978450  -0.291779215167  0.237106676036
 H075   H  -0.471114108797  -0.208220784833  -0.023036806383
 H076   H  0.314816021550  -0.448077302415  -0.476963193617
 H077   H  0.262893323964  -0.028885891203  -0.051922697585
 H078   H  -0.051922697585  0.262893323964  -0.028885891203
 H079   H  -0.476963193617  0.314816021550  -0.448077302415
 H080   H  -0.291779215167  0.237106676036  0.185183978450
 H081   H  0.237106676036  0.185183978450  -0.291779215167
 H082   H  -0.208220784833  -0.023036806383  -0.471114108797
 H083   H  -0.023036806383  -0.471114108797  -0.208220784833
 H084   H  -0.448077302415  -0.476963193617  0.314816021550
 H085   H  0.448077302415  0.471114108797  -0.237106676036
 H086   H  0.208220784833  -0.314816021550  -0.262893323964
 H087   H  0.291779215167  0.028885891203  0.476963193617
 H088   H  0.051922697585  -0.185183978450  0.023036806383
 H089   H  0.471114108797  -0.237106676036  0.448077302415
 H090   H  -0.237106676036  0.448077302415  0.471114108797
 H091   H  -0.185183978450  0.023036806383  0.051922697585
 H092   H  -0.262893323964  0.208220784833  -0.314816021550
 H093   H  -0.314816021550  -0.262893323964  0.208220784833
 H094   H  0.476963193617  0.291779215167  0.028885891203
 H095   H  0.028885891203  0.476963193617  0.291779215167
 H096   H  0.023036806383  0.051922697585  -0.185183978450
 C097   C  0.024988526466  -0.010462247130  0.332906688585
 C098   C  0.156631064285  -0.307918162119  0.167093311415
 C099   C  0.475011473534  -0.192081837881  -0.035450773596
 C100   C  0.343368935715  -0.489537752870  -0.464549226404
 C101   C  0.332906688585  0.024988526466  -0.010462247130
 C102   C  -0.010462247130  0.332906688585  0.024988526466
 C103   C  -0.464549226404  0.343368935715  -0.489537752870
 C104   C  -0.307918162119  0.167093311415  0.156631064285
 C105   C  0.167093311415  0.156631064285  -0.307918162119
 C106   C  -0.192081837881  -0.035450773596  0.475011473534
 C107   C  -0.035450773596  0.475011473534  -0.192081837881
 C108   C  -0.489537752870  -0.464549226404  0.343368935715
 C109   C  0.489537752870  -0.475011473534  -0.167093311415
 C110   C  0.192081837881  -0.343368935715  -0.332906688585
 C111   C  0.307918162119  -0.024988526466  0.464549226404
 C112   C  0.010462247130  -0.156631064285  0.035450773596
 C113   C  -0.475011473534  -0.167093311415  0.489537752870
 C114   C  -0.167093311415  0.489537752870  -0.475011473534
 C115   C  -0.156631064285  0.035450773596  0.010462247130
 C116   C  -0.332906688585  0.192081837881  -0.343368935715
 C117   C  -0.343368935715  -0.332906688585  0.192081837881
 C118   C  0.464549226404  0.307918162119  -0.024988526466
 C119   C  -0.024988526466  0.464549226404  0.307918162119
 C120   C  0.035450773596  0.010462247130  -0.156631064285
 C121   C  0.024672724997  -0.008044799686  0.371709795356
 C122   C  0.120245404959  -0.347037070359  0.128290204644
 C123   C  0.475327275003  -0.152962929641  -0.032717524683
 C124   C  0.379754595041  -0.491955200314  -0.467282475317
 C125   C  0.371709795356  0.024672724997  -0.008044799686
 C126   C  -0.008044799686  0.371709795356  0.024672724997
 C127   C  -0.467282475317  0.379754595041  -0.491955200314
 C128   C  -0.347037070359  0.128290204644  0.120245404959
 C129   C  0.128290204644  0.120245404959  -0.347037070359
 C130   C  -0.152962929641  -0.032717524683  0.475327275003
 C131   C  -0.032717524683  0.475327275003  -0.152962929641
 C132   C  -0.491955200314  -0.467282475317  0.379754595041
 C133   C  0.491955200314  -0.475327275003  -0.128290204644
 C134   C  0.152962929641  -0.379754595041  -0.371709795356
 C135   C  0.347037070359  -0.024672724997  0.467282475317
 C136   C  0.008044799686  -0.120245404959  0.032717524683
 C137   C  -0.475327275003  -0.128290204644  0.491955200314
 C138   C  -0.128290204644  0.491955200314  -0.475327275003
 C139   C  -0.120245404959  0.032717524683  0.008044799686
 C140   C  -0.371709795356  0.152962929641  -0.379754595041
 C141   C  -0.379754595041  -0.371709795356  0.152962929641
 C142   C  0.467282475317  0.347037070359  -0.024672724997
 C143   C  -0.024672724997  0.467282475317  0.347037070359
 C144   C  0.032717524683  0.008044799686  -0.120245404959
 C145   C  -0.017950724255  -0.042602311196  0.297098553582
 C146   C  0.160299135222  -0.315049277837  0.202901446417
 C147   C  -0.482049275745  -0.184950722162  -0.024651586941
 C148   C  0.339700864778  -0.457397688804  -0.475348413059
 C149   C  0.297098553582  -0.017950724255  -0.042602311196
 C150   C  -0.042602311196  0.297098553582  -0.017950724255
 C151   C  -0.475348413059  0.339700864778  -0.457397688804
 C152   C  -0.315049277837  0.202901446417  0.160299135222
 C153   C  0.202901446417  0.160299135222  -0.315049277837
 C154   C  -0.184950722162  -0.024651586941  -0.482049275745
 C155   C  -0.024651586941  -0.482049275745  -0.184950722162
 C156   C  -0.457397688804  -0.475348413059  0.339700864778
 C157   C  0.457397688804  0.482049275745  -0.202901446417
 C158   C  0.184950722162  -0.339700864778  -0.297098553582
 C159   C  0.315049277837  0.017950724255  0.475348413059
 C160   C  0.042602311196  -0.160299135222  0.024651586941
 C161   C  0.482049275745  -0.202901446417  0.457397688804
 C162   C  -0.202901446417  0.457397688804  0.482049275745
 C163   C  -0.160299135222  0.024651586941  0.042602311196
 C164   C  -0.297098553582  0.184950722162  -0.339700864778
 C165   C  -0.339700864778  -0.297098553582  0.184950722162
 C166   C  0.475348413059  0.315049277837  0.017950724255
 C167   C  0.017950724255  0.475348413059  0.315049277837
 C168   C  0.024651586941  0.042602311196  -0.160299135222
Co169  Co  -0.023074258971  0.004284142027  0.341191602848
Co170  Co  0.163092539179  -0.364265861819  0.158808397152
Co171  Co  -0.476925741029  -0.135734138181  0.027358400998
Co172  Co  0.336907460821  0.495715857973  0.472641599002
Co173  Co  0.341191602848  -0.023074258971  0.004284142027
Co174  Co  0.004284142027  0.341191602848  -0.023074258971
Co175  Co  0.472641599002  0.336907460821  0.495715857973
Co176  Co  -0.364265861819  0.158808397152  0.163092539179
Co177  Co  0.158808397152  0.163092539179  -0.364265861819
Co178  Co  -0.135734138181  0.027358400998  -0.476925741029
Co179  Co  0.027358400998  -0.476925741029  -0.135734138181
Co180  Co  0.495715857973  0.472641599002  0.336907460821
Co181  Co  -0.495715857973  0.476925741029  -0.158808397152
Co182  Co  0.135734138181  -0.336907460821  -0.341191602848
Co183  Co  0.364265861819  0.023074258971  -0.472641599002
Co184  Co  -0.004284142027  -0.163092539179  -0.027358400998
Co185  Co  0.476925741029  -0.158808397152  -0.495715857973
Co186  Co  -0.158808397152  -0.495715857973  0.476925741029
Co187  Co  -0.163092539179  -0.027358400998  -0.004284142027
Co188  Co  -0.341191602848  0.135734138181  -0.336907460821
Co189  Co  -0.336907460821  -0.341191602848  0.135734138181
Co190  Co  -0.472641599002  0.364265861819  0.023074258971
Co191  Co  0.023074258971  -0.472641599002  0.364265861819
Co192  Co  -0.027358400998  -0.004284142027  -0.163092539179
 H193   H  0.019784550139  0.085923285948  0.417435120422
 H194   H  0.168488165525  -0.397650570283  0.082564879578
 H195   H  0.480215449861  -0.102349429717  0.066138735809
 H196   H  0.331511834475  0.414076714052  0.433861264191
 H197   H  0.417435120422  0.019784550139  0.085923285948
 H198   H  0.085923285948  0.417435120422  0.019784550139
 H199   H  0.433861264191  0.331511834475  0.414076714052
 H200   H  -0.397650570283  0.082564879578  0.168488165525
 H201   H  0.082564879578  0.168488165525  -0.397650570283
 H202   H  -0.102349429717  0.066138735809  0.480215449861
 H203   H  0.066138735809  0.480215449861  -0.102349429717
 H204   H  0.414076714052  0.433861264191  0.331511834475
 H205   H  -0.414076714052  -0.480215449861  -0.082564879578
 H206   H  0.102349429717  -0.331511834475  -0.417435120422
 H207   H  0.397650570283  -0.019784550139  -0.433861264191
 H208   H  -0.085923285948  -0.168488165525  -0.066138735809
 H209   H  -0.480215449861  -0.082564879578  -0.414076714052
 H210   H  -0.082564879578  -0.414076714052  -0.480215449861
 H211   H  -0.168488165525  -0.066138735809  -0.085923285948
 H212   H  -0.417435120422  0.102349429717  -0.331511834475
 H213   H  -0.331511834475  -0.417435120422  0.102349429717
 H214   H  -0.433861264191  0.397650570283  -0.019784550139
 H215   H  -0.019784550139  -0.433861264191  0.397650570283
 H216   H  -0.066138735809  -0.085923285948  -0.168488165525
 C217   C  -0.043875783090  -0.062594958533  0.313384021745
 C218   C  0.124021019722  -0.357259804835  0.186615978255
 C219   C  -0.456124216910  -0.142740195165  -0.018719175443
 C220   C  0.375978980278  -0.437405041467  -0.481280824557
 C221   C  0.313384021745  -0.043875783090  -0.062594958533
 C222   C  -0.062594958533  0.313384021745  -0.043875783090
 C223   C  -0.481280824557  0.375978980278  -0.437405041467
 C224   C  -0.357259804835  0.186615978255  0.124021019722
 C225   C  0.186615978255  0.124021019722  -0.357259804835
 C226   C  -0.142740195165  -0.018719175443  -0.456124216910
 C227   C  -0.018719175443  -0.456124216910  -0.142740195165
 C228   C  -0.437405041467  -0.481280824557  0.375978980278
 C229   C  0.437405041467  0.456124216910  -0.186615978255
 C230   C  0.142740195165  -0.375978980278  -0.313384021745
 C231   C  0.357259804835  0.043875783090  0.481280824557
 C232   C  0.062594958533  -0.124021019722  0.018719175443
 C233   C  0.456124216910  -0.186615978255  0.437405041467
 C234   C  -0.186615978255  0.437405041467  0.456124216910
 C235   C  -0.124021019722  0.018719175443  0.062594958533
 C236   C  -0.313384021745  0.142740195165  -0.375978980278
 C237   C  -0.375978980278  -0.313384021745  0.142740195165
 C238   C  0.481280824557  0.357259804835  0.043875783090
 C239   C  0.043875783090  0.481280824557  0.357259804835
 C240   C  0.018719175443  0.062594958533  -0.124021019722
 H241   H  0.007615604389  0.085247512594  0.341539716387
 H242   H  0.243707796207  -0.333924111998  0.158460283613
 H243   H  0.492384395611  -0.166075888002  0.077631908205
 H244   H  0.256292203793  0.414752487406  0.422368091795
 H245   H  0.341539716387  0.007615604389  0.085247512594
 H246   H  0.085247512594  0.341539716387  0.007615604389
 H247   H  0.422368091795  0.256292203793  0.414752487406
 H248   H  -0.333924111998  0.158460283613  0.243707796207
 H249   H  0.158460283613  0.243707796207  -0.333924111998
 H250   H  -0.166075888002  0.077631908205  0.492384395611
 H251   H  0.077631908205  0.492384395611  -0.166075888002
 H252   H  0.414752487406  0.422368091795  0.256292203793
 H253   H  -0.414752487406  -0.492384395611  -0.158460283613
 H254   H  0.166075888002  -0.256292203793  -0.341539716387
 H255   H  0.333924111998  -0.007615604389  -0.422368091795
 H256   H  -0.085247512594  -0.243707796207  -0.077631908205
 H257   H  -0.492384395611  -0.158460283613  -0.414752487406
 H258   H  -0.158460283613  -0.414752487406  -0.492384395611
 H259   H  -0.243707796207  -0.077631908205  -0.085247512594
 H260   H  -0.341539716387  0.166075888002  -0.256292203793
 H261   H  -0.256292203793  -0.341539716387  0.166075888002
 H262   H  -0.422368091795  0.333924111998  -0.007615604389
 H263   H  -0.007615604389  -0.422368091795  0.333924111998
 H264   H  -0.077631908205  -0.085247512594  -0.243707796207
 C265   C  -0.058740270823  0.027861189164  0.311638702381
 C266   C  0.216222486784  -0.370378973203  0.188361297619
 C267   C  -0.441259729177  -0.129621026797  0.086601459987
 C268   C  0.283777513216  0.472138810836  0.413398540013
 C269   C  0.311638702381  -0.058740270823  0.027861189164
 C270   C  0.027861189164  0.311638702381  -0.058740270823
 C271   C  0.413398540013  0.283777513216  0.472138810836
 C272   C  -0.370378973203  0.188361297619  0.216222486784
 C273   C  0.188361297619  0.216222486784  -0.370378973203
 C274   C  -0.129621026797  0.086601459987  -0.441259729177
 C275   C  0.086601459987  -0.441259729177  -0.129621026797
 C276   C  0.472138810836  0.413398540013  0.283777513216
 C277   C  -0.472138810836  0.441259729177  -0.188361297619
 C278   C  0.129621026797  -0.283777513216  -0.311638702381
 C279   C  0.370378973203  0.058740270823  -0.413398540013
 C280   C  -0.027861189164  -0.216222486784  -0.086601459987
 C281   C  0.441259729177  -0.188361297619  -0.472138810836
 C282   C  -0.188361297619  -0.472138810836  0.441259729177
 C283   C  -0.216222486784  -0.086601459987  -0.027861189164
 C284   C  -0.311638702381  0.129621026797  -0.283777513216
 C285   C  -0.283777513216  -0.311638702381  0.129621026797
 C286   C  -0.413398540013  0.370378973203  0.058740270823
 C287   C  0.058740270823  -0.413398540013  0.370378973203
 C288   C  -0.086601459987  -0.027861189164  -0.216222486784
 C289   C  -0.009698731348  0.063614843727  0.385512197399
 C290   C  0.178102646328  -0.395210928746  0.114487802601
 C291   C  -0.490301268652  -0.104789071254  0.073313575075
 C292   C  0.321897353672  0.436385156273  0.426686424925
 C293   C  0.385512197399  -0.009698731348  0.063614843727
 C294   C  0.063614843727  0.385512197399  -0.009698731348
 C295   C  0.426686424925  0.321897353672  0.436385156273
 C296   C  -0.395210928746  0.114487802601  0.178102646328
 C297   C  0.114487802601  0.178102646328  -0.395210928746
 C298   C  -0.104789071254  0.073313575075  -0.490301268652
 C299   C  0.073313575075  -0.490301268652  -0.104789071254
 C300   C  0.436385156273  0.426686424925  0.321897353672
 C301   C  -0.436385156273  0.490301268652  -0.114487802601
 C302   C  0.104789071254  -0.321897353672  -0.385512197399
 C303   C  0.395210928746  0.009698731348  -0.426686424925
 C304   C  -0.063614843727  -0.178102646328  -0.073313575075
 C305   C  0.490301268652  -0.114487802601  -0.436385156273
 C306   C  -0.114487802601  -0.436385156273  0.490301268652
 C307   C  -0.178102646328  -0.073313575075  -0.063614843727
 C308   C  -0.385512197399  0.104789071254  -0.321897353672
 C309   C  -0.321897353672  -0.385512197399  0.104789071254
 C310   C  -0.426686424925  0.395210928746  0.009698731348
 C311   C  0.009698731348  -0.426686424925  0.395210928746
 C312   C  -0.073313575075  -0.063614843727  -0.178102646328
 C313   C  -0.016393991635  0.063536665179  0.345723038925
 C314   C  0.217813626254  -0.362117030561  0.154276961075
 C315   C  -0.483606008365  -0.137882969439  0.079930656814
 C316   C  0.282186373746  0.436463334821  0.420069343185
 C317   C  0.345723038925  -0.016393991635  0.063536665179
 C318   C  0.063536665179  0.345723038925  -0.016393991635
 C319   C  0.420069343185  0.282186373746  0.436463334821
 C320   C  -0.362117030561  0.154276961075  0.217813626254
 C321   C  0.154276961075  0.217813626254  -0.362117030561
 C322   C  -0.137882969439  0.079930656814  -0.483606008365
 C323   C  0.079930656814  -0.483606008365  -0.137882969439
 C324   C  0.436463334821  0.420069343185  0.282186373746
 C325   C  -0.436463334821  0.483606008365  -0.154276961075
 C326   C  0.137882969439  -0.282186373746  -0.345723038925
 C327   C  0.362117030561  0.016393991635  -0.420069343185
 C328   C  -0.063536665179  -0.217813626254  -0.079930656814
 C329   C  0.483606008365  -0.154276961075  -0.436463334821
 C330   C  -0.154276961075  -0.436463334821  0.483606008365
 C331   C  -0.217813626254  -0.079930656814  -0.063536665179
 C332   C  -0.345723038925  0.137882969439  -0.282186373746
 C333   C  -0.282186373746  -0.345723038925  0.137882969439
 C334   C  -0.420069343185  0.362117030561  0.016393991635
 C335   C  0.016393991635  -0.420069343185  0.362117030561
 C336   C  -0.079930656814  -0.063536665179  -0.217813626254
 H337   H  -0.073487995854  0.019201584328  0.277419571143
 H338   H  0.241782013185  -0.350907566997  0.222580428857
 H339   H  -0.426512004146  -0.149092433003  0.092689580183
 H340   H  0.258217986814  0.480798415672  0.407310419817
 H341   H  0.277419571143  -0.073487995854  0.019201584328
 H342   H  0.019201584328  0.277419571143  -0.073487995854
 H343   H  0.407310419817  0.258217986814  0.480798415672
 H344   H  -0.350907566997  0.222580428857  0.241782013185
 H345   H  0.222580428857  0.241782013185  -0.350907566997
 H346   H  -0.149092433003  0.092689580183  -0.426512004146
 H347   H  0.092689580183  -0.426512004146  -0.149092433003
 H348   H  0.480798415672  0.407310419817  0.258217986814
 H349   H  -0.480798415672  0.426512004146  -0.222580428857
 H350   H  0.149092433003  -0.258217986814  -0.277419571143
 H351   H  0.350907566997  0.073487995854  -0.407310419817
 H352   H  -0.019201584328  -0.241782013185  -0.092689580183
 H353   H  0.426512004146  -0.222580428857  -0.480798415672
 H354   H  -0.222580428857  -0.480798415672  0.426512004146
 H355   H  -0.241782013185  -0.092689580183  -0.019201584328
 H356   H  -0.277419571143  0.149092433003  -0.258217986814
 H357   H  -0.258217986814  -0.277419571143  0.149092433003
 H358   H  -0.407310419817  0.350907566997  0.073487995854
 H359   H  0.073487995854  -0.407310419817  0.350907566997
 H360   H  -0.092689580183  -0.019201584328  -0.241782013185
 H361   H  0.052090328750  0.014147293071  0.405010970936
 H362   H  0.109136322135  -0.352920642186  0.094989029064
 H363   H  0.447909671250  -0.147079357814  -0.037943035679
 H364   H  0.390863677865  0.485852706929  -0.462056964320
 H365   H  0.405010970936  0.052090328750  0.014147293071
 H366   H  0.014147293071  0.405010970936  0.052090328750
 H367   H  -0.462056964320  0.390863677865  0.485852706929
 H368   H  -0.352920642186  0.094989029064  0.109136322135
 H369   H  0.094989029064  0.109136322135  -0.352920642186
 H370   H  -0.147079357814  -0.037943035679  0.447909671250
 H371   H  -0.037943035679  0.447909671250  -0.147079357814
 H372   H  0.485852706929  -0.462056964320  0.390863677865
 H373   H  -0.485852706929  -0.447909671250  -0.094989029064
 H374   H  0.147079357814  -0.390863677865  -0.405010970936
 H375   H  0.352920642186  -0.052090328750  0.462056964320
 H376   H  -0.014147293071  -0.109136322135  0.037943035679
 H377   H  -0.447909671250  -0.094989029064  -0.485852706929
 H378   H  -0.094989029064  -0.485852706929  -0.447909671250
 H379   H  -0.109136322135  0.037943035679  -0.014147293071
 H380   H  -0.405010970936  0.147079357814  -0.390863677865
 H381   H  -0.390863677865  -0.405010970936  0.147079357814
 H382   H  0.462056964320  0.352920642186  -0.052090328750
 H383   H  -0.052090328750  0.462056964320  0.352920642186
 H384   H  0.037943035679  -0.014147293071  -0.109136322135
 O385   O  0.014659366091  0.062065085221  0.470515948820
 O386   O  0.091549136401  -0.455856582728  0.029484051180
 O387   O  0.485340633909  -0.044143417272  0.047405719130
 O388   O  0.408450863599  0.437934914779  0.452594280870
 O389   O  0.470515948820  0.014659366091  0.062065085221
 O390   O  0.062065085221  0.470515948820  0.014659366091
 O391   O  0.452594280870  0.408450863599  0.437934914779
 O392   O  -0.455856582728  0.029484051180  0.091549136401
 O393   O  0.029484051180  0.091549136401  -0.455856582728
 O394   O  -0.044143417272  0.047405719130  0.485340633909
 O395   O  0.047405719130  0.485340633909  -0.044143417272
 O396   O  0.437934914779  0.452594280870  0.408450863599
 O397   O  -0.437934914779  -0.485340633909  -0.029484051180
 O398   O  0.044143417272  -0.408450863599  -0.470515948820
 O399   O  0.455856582728  -0.014659366091  -0.452594280870
 O400   O  -0.062065085221  -0.091549136401  -0.047405719130
 O401   O  -0.485340633909  -0.029484051180  -0.437934914779
 O402   O  -0.029484051180  -0.437934914779  -0.485340633909
 O403   O  -0.091549136401  -0.047405719130  -0.062065085221
 O404   O  -0.470515948820  0.044143417272  -0.408450863599
 O405   O  -0.408450863599  -0.470515948820  0.044143417272
 O406   O  -0.452594280870  0.455856582728  -0.014659366091
 O407   O  -0.014659366091  -0.452594280870  0.455856582728
 O408   O  -0.047405719130  -0.062065085221  -0.091549136401
 H409   H  -0.159695315172  -0.091414516134  0.166952874774
 H410   H  0.241632609093  -0.326648189945  0.333047125226
 H411   H  -0.340304684828  -0.173351810055  0.068280799038
 H412   H  0.258367390907  -0.408585483866  0.431719200962
 H413   H  0.166952874774  -0.159695315172  -0.091414516134
 H414   H  -0.091414516134  0.166952874774  -0.159695315172
 H415   H  0.431719200962  0.258367390907  -0.408585483866
 H416   H  -0.326648189945  0.333047125226  0.241632609093
 H417   H  0.333047125226  0.241632609093  -0.326648189945
 H418   H  -0.173351810055  0.068280799038  -0.340304684828
 H419   H  0.068280799038  -0.340304684828  -0.173351810055
 H420   H  -0.408585483866  0.431719200962  0.258367390907
 H421   H  0.408585483866  0.340304684828  -0.333047125226
 H422   H  0.173351810055  -0.258367390907  -0.166952874774
 H423   H  0.326648189945  0.159695315172  -0.431719200962
 H424   H  0.091414516134  -0.241632609093  -0.068280799038
 H425   H  0.340304684828  -0.333047125226  0.408585483866
 H426   H  -0.333047125226  0.408585483866  0.340304684828
 H427   H  -0.241632609093  -0.068280799038  0.091414516134
 H428   H  -0.166952874774  0.173351810055  -0.258367390907
 H429   H  -0.258367390907  -0.166952874774  0.173351810055
 H430   H  -0.431719200962  0.326648189945  0.159695315172
 H431   H  0.159695315172  -0.431719200962  0.326648189945
 H432   H  -0.068280799038  0.091414516134  -0.241632609093
 H433   H  -0.167669565523  -0.063120618870  0.328964622720
 H434   H  0.107914758411  -0.496634188243  0.171035377280
 H435   H  -0.332330434477  -0.003365811757  0.104548946654
 H436   H  0.392085241589  -0.436879381130  0.395451053346
 H437   H  0.328964622720  -0.167669565523  -0.063120618870
 H438   H  -0.063120618870  0.328964622720  -0.167669565523
 H439   H  0.395451053346  0.392085241589  -0.436879381130
 H440   H  -0.496634188243  0.171035377280  0.107914758411
 H441   H  0.171035377280  0.107914758411  -0.496634188243
 H442   H  -0.003365811757  0.104548946654  -0.332330434477
 H443   H  0.104548946654  -0.332330434477  -0.003365811757
 H444   H  -0.436879381130  0.395451053346  0.392085241589
 H445   H  0.436879381130  0.332330434477  -0.171035377280
 H446   H  0.003365811757  -0.392085241589  -0.328964622720
 H447   H  0.496634188243  0.167669565523  -0.395451053346
 H448   H  0.063120618870  -0.107914758411  -0.104548946654
 H449   H  0.332330434477  -0.171035377280  0.436879381130
 H450   H  -0.171035377280  0.436879381130  0.332330434477
 H451   H  -0.107914758411  -0.104548946654  0.063120618870
 H452   H  -0.328964622720  0.003365811757  -0.392085241589
 H453   H  -0.392085241589  -0.328964622720  0.003365811757
 H454   H  -0.395451053346  0.496634188243  0.167669565523
 H455   H  0.167669565523  -0.395451053346  0.496634188243
 H456   H  -0.104548946654  0.063120618870  -0.107914758411
 C457   C  -0.017414988196  -0.041450771407  0.359398638444
 C458   C  0.099150590149  -0.376813626640  0.140601361556
 C459   C  -0.482585011804  -0.123186373360  -0.024035783211
 C460   C  0.400849409851  -0.458549228593  -0.475964216789
 C461   C  0.359398638444  -0.017414988196  -0.041450771407
 C462   C  -0.041450771407  0.359398638444  -0.017414988196
 C463   C  -0.475964216789  0.400849409851  -0.458549228593
 C464   C  -0.376813626640  0.140601361556  0.099150590149
 C465   C  0.140601361556  0.099150590149  -0.376813626640
 C466   C  -0.123186373360  -0.024035783211  -0.482585011804
 C467   C  -0.024035783211  -0.482585011804  -0.123186373360
 C468   C  -0.458549228593  -0.475964216789  0.400849409851
 C469   C  0.458549228593  0.482585011804  -0.140601361556
 C470   C  0.123186373360  -0.400849409851  -0.359398638444
 C471   C  0.376813626640  0.017414988196  0.475964216789
 C472   C  0.041450771407  -0.099150590149  0.024035783211
 C473   C  0.482585011804  -0.140601361556  0.458549228593
 C474   C  -0.140601361556  0.458549228593  0.482585011804
 C475   C  -0.099150590149  0.024035783211  0.041450771407
 C476   C  -0.359398638444  0.123186373360  -0.400849409851
 C477   C  -0.400849409851  -0.359398638444  0.123186373360
 C478   C  0.475964216789  0.376813626640  0.017414988196
 C479   C  0.017414988196  0.475964216789  0.376813626640
 C480   C  0.024035783211  0.041450771407  -0.099150590149
 H481   H  -0.264386265303  -0.098597395188  0.193607628767
 H482   H  0.207794976045  -0.457993894070  0.306392371233
 H483   H  -0.235613734697  -0.042006105930  0.165788870115
 H484   H  0.292205023955  -0.401402604812  0.334211129885
 H485   H  0.193607628767  -0.264386265303  -0.098597395188
 H486   H  -0.098597395188  0.193607628767  -0.264386265303
 H487   H  0.334211129885  0.292205023955  -0.401402604812
 H488   H  -0.457993894070  0.306392371233  0.207794976045
 H489   H  0.306392371233  0.207794976045  -0.457993894070
 H490   H  -0.042006105930  0.165788870115  -0.235613734697
 H491   H  0.165788870115  -0.235613734697  -0.042006105930
 H492   H  -0.401402604812  0.334211129885  0.292205023955
 H493   H  0.401402604812  0.235613734697  -0.306392371233
 H494   H  0.042006105930  -0.292205023955  -0.193607628767
 H495   H  0.457993894070  0.264386265303  -0.334211129885
 H496   H  0.098597395188  -0.207794976045  -0.165788870115
 H497   H  0.235613734697  -0.306392371233  0.401402604812
 H498   H  -0.306392371233  0.401402604812  0.235613734697
 H499   H  -0.207794976045  -0.165788870115  0.098597395188
 H500   H  -0.193607628767  0.042006105930  -0.292205023955
 H501   H  -0.292205023955  -0.193607628767  0.042006105930
 H502   H  -0.334211129885  0.457993894070  0.264386265303
 H503   H  0.264386265303  -0.334211129885  0.457993894070
 H504   H  -0.165788870115  0.098597395188  -0.207794976045
 H505   H  -0.211610713505  -0.057061861022  0.273153174421
 H506   H  0.169784964557  -0.484763887926  0.226846825579
 H507   H  -0.288389286495  -0.015236112074  0.154548852483
 H508   H  0.330215035443  -0.442938138978  0.345451147517
 H509   H  0.273153174421  -0.211610713505  -0.057061861022
 H510   H  -0.057061861022  0.273153174421  -0.211610713505
 H511   H  0.345451147517  0.330215035443  -0.442938138978
 H512   H  -0.484763887926  0.226846825579  0.169784964557
 H513   H  0.226846825579  0.169784964557  -0.484763887926
 H514   H  -0.015236112074  0.154548852483  -0.288389286495
 H515   H  0.154548852483  -0.288389286495  -0.015236112074
 H516   H  -0.442938138978  0.345451147517  0.330215035443
 H517   H  0.442938138978  0.288389286495  -0.226846825579
 H518   H  0.015236112074  -0.330215035443  -0.273153174421
 H519   H  0.484763887926  0.211610713505  -0.345451147517
 H520   H  0.057061861022  -0.169784964557  -0.154548852483
 H521   H  0.288389286495  -0.226846825579  0.442938138978
 H522   H  -0.226846825579  0.442938138978  0.288389286495
 H523   H  -0.169784964557  -0.154548852483  0.057061861022
 H524   H  -0.273153174421  0.015236112074  -0.330215035443
 H525   H  -0.330215035443  -0.273153174421  0.015236112074
 H526   H  -0.345451147517  0.484763887926  0.211610713505
 H527   H  0.211610713505  -0.345451147517  0.484763887926
 H528   H  -0.154548852483  0.057061861022  -0.169784964557
 H529   H  -0.115790498780  -0.022031960266  0.408757021388
 H530   H  0.069211018346  0.475452479832  0.091242978612
 H531   H  -0.384209501220  0.024547520168  0.093758538514
 H532   H  0.430788981654  -0.477968039734  0.406241461486
 H533   H  0.408757021388  -0.115790498780  -0.022031960266
 H534   H  -0.022031960266  0.408757021388  -0.115790498780
 H535   H  0.406241461486  0.430788981654  -0.477968039734
 H536   H  0.475452479832  0.091242978612  0.069211018346
 H537   H  0.091242978612  0.069211018346  0.475452479832
 H538   H  0.024547520168  0.093758538514  -0.384209501220
 H539   H  0.093758538514  -0.384209501220  0.024547520168
 H540   H  -0.477968039734  0.406241461486  0.430788981654
 H541   H  0.477968039734  0.384209501220  -0.091242978612
 H542   H  -0.024547520168  -0.430788981654  -0.408757021388
 H543   H  -0.475452479832  0.115790498780  -0.406241461486
 H544   H  0.022031960266  -0.069211018346  -0.093758538514
 H545   H  0.384209501220  -0.091242978612  0.477968039734
 H546   H  -0.091242978612  0.477968039734  0.384209501220
 H547   H  -0.069211018346  -0.093758538514  0.022031960266
 H548   H  -0.408757021388  -0.024547520168  -0.430788981654
 H549   H  -0.430788981654  -0.408757021388  -0.024547520168
 H550   H  -0.406241461486  -0.475452479832  0.115790498780
 H551   H  0.115790498780  -0.406241461486  -0.475452479832
 H552   H  -0.093758538514  0.022031960266  -0.069211018346
 H553   H  -0.107528521691  -0.052666248010  0.246183194746
 H554   H  0.201150557244  -0.353711716437  0.253816805254
 H555   H  -0.392471478309  -0.146288283563  0.054862273681
 H556   H  0.298849442756  -0.447333751990  0.445137726319
 H557   H  0.246183194746  -0.107528521691  -0.052666248010
 H558   H  -0.052666248010  0.246183194746  -0.107528521691
 H559   H  0.445137726319  0.298849442756  -0.447333751990
 H560   H  -0.353711716437  0.253816805254  0.201150557244
 H561   H  0.253816805254  0.201150557244  -0.353711716437
 H562   H  -0.146288283563  0.054862273681  -0.392471478309
 H563   H  0.054862273681  -0.392471478309  -0.146288283563
 H564   H  -0.447333751990  0.445137726319  0.298849442756
 H565   H  0.447333751990  0.392471478309  -0.253816805254
 H566   H  0.146288283563  -0.298849442756  -0.246183194746
 H567   H  0.353711716437  0.107528521691  -0.445137726319
 H568   H  0.052666248010  -0.201150557244  -0.054862273681
 H569   H  0.392471478309  -0.253816805254  0.447333751990
 H570   H  -0.253816805254  0.447333751990  0.392471478309
 H571   H  -0.201150557244  -0.054862273681  0.052666248010
 H572   H  -0.246183194746  0.146288283563  -0.298849442756
 H573   H  -0.298849442756  -0.246183194746  0.146288283563
 H574   H  -0.445137726319  0.353711716437  0.107528521691
 H575   H  0.107528521691  -0.445137726319  0.353711716437
 H576   H  -0.054862273681  0.052666248010  -0.201150557244
 C577   C  -0.229925118347  -0.089045578123  0.205142931806
 C578   C  0.205811490071  -0.435068050153  0.294857068194
 C579   C  -0.270074881653  -0.064931949847  0.140879540223
 C580   C  0.294188509929  -0.410954421877  0.359120459777
 C581   C  0.205142931806  -0.229925118347  -0.089045578123
 C582   C  -0.089045578123  0.205142931806  -0.229925118347
 C583   C  0.359120459777  0.294188509929  -0.410954421877
 C584   C  -0.435068050153  0.294857068194  0.205811490071
 C585   C  0.294857068194  0.205811490071  -0.435068050153
 C586   C  -0.064931949847  0.140879540223  -0.270074881653
 C587   C  0.140879540223  -0.270074881653  -0.064931949847
 C588   C  -0.410954421877  0.359120459777  0.294188509929
 C589   C  0.410954421877  0.270074881653  -0.294857068194
 C590   C  0.064931949847  -0.294188509929  -0.205142931806
 C591   C  0.435068050153  0.229925118347  -0.359120459777
 C592   C  0.089045578123  -0.205811490071  -0.140879540223
 C593   C  0.270074881653  -0.294857068194  0.410954421877
 C594   C  -0.294857068194  0.410954421877  0.270074881653
 C595   C  -0.205811490071  -0.140879540223  0.089045578123
 C596   C  -0.205142931806  0.064931949847  -0.294188509929
 C597   C  -0.294188509929  -0.205142931806  0.064931949847
 C598   C  -0.359120459777  0.435068050153  0.229925118347
 C599   C  0.229925118347  -0.359120459777  0.435068050153
 C600   C  -0.140879540223  0.089045578123  -0.205811490071
 C601   C  -0.155462023436  -0.051476407698  0.265748078045
 C602   C  0.182775514257  -0.421210101480  0.234251921955
 C603   C  -0.344537976565  -0.078789898520  0.103985615737
 C604   C  0.317224485743  -0.448523592302  0.396014384263
 C605   C  0.265748078045  -0.155462023436  -0.051476407698
 C606   C  -0.051476407698  0.265748078045  -0.155462023436
 C607   C  0.396014384263  0.317224485743  -0.448523592302
 C608   C  -0.421210101480  0.234251921955  0.182775514257
 C609   C  0.234251921955  0.182775514257  -0.421210101480
 C610   C  -0.078789898520  0.103985615737  -0.344537976565
 C611   C  0.103985615737  -0.344537976565  -0.078789898520
 C612   C  -0.448523592302  0.396014384263  0.317224485743
 C613   C  0.448523592302  0.344537976565  -0.234251921955
 C614   C  0.078789898520  -0.317224485743  -0.265748078045
 C615   C  0.421210101480  0.155462023436  -0.396014384263
 C616   C  0.051476407698  -0.182775514257  -0.103985615737
 C617   C  0.344537976565  -0.234251921955  0.448523592302
 C618   C  -0.234251921955  0.448523592302  0.344537976565
 C619   C  -0.182775514257  -0.103985615737  0.051476407698
 C620   C  -0.265748078045  0.078789898520  -0.317224485743
 C621   C  -0.317224485743  -0.265748078045  0.078789898520
 C622   C  -0.396014384263  0.421210101480  0.155462023436
 C623   C  0.155462023436  -0.396014384263  0.421210101480
 C624   C  -0.103985615737  0.051476407698  -0.182775514257
 C625   C  -0.216151650654  -0.098887541358  0.174203755645
 C626   C  0.226908702997  -0.390355406299  0.325796244355
 C627   C  -0.283848349346  -0.109644593701  0.117264109296
 C628   C  0.273091297003  -0.401112458642  0.382735890704
 C629   C  0.174203755645  -0.216151650654  -0.098887541358
 C630   C  -0.098887541358  0.174203755645  -0.216151650654
 C631   C  0.382735890704  0.273091297003  -0.401112458642
 C632   C  -0.390355406299  0.325796244355  0.226908702997
 C633   C  0.325796244355  0.226908702997  -0.390355406299
 C634   C  -0.109644593701  0.117264109296  -0.283848349346
 C635   C  0.117264109296  -0.283848349346  -0.109644593701
 C636   C  -0.401112458642  0.382735890704  0.273091297003
 C637   C  0.401112458642  0.283848349346  -0.325796244355
 C638   C  0.109644593701  -0.273091297003  -0.174203755645
 C639   C  0.390355406299  0.216151650654  -0.382735890704
 C640   C  0.098887541358  -0.226908702997  -0.117264109296
 C641   C  0.283848349346  -0.325796244355  0.401112458642
 C642   C  -0.325796244355  0.401112458642  0.283848349346
 C643   C  -0.226908702997  -0.117264109296  0.098887541358
 C644   C  -0.174203755645  0.109644593701  -0.273091297003
 C645   C  -0.273091297003  -0.174203755645  0.109644593701
 C646   C  -0.382735890704  0.390355406299  0.216151650654
 C647   C  0.216151650654  -0.382735890704  0.390355406299
 C648   C  -0.117264109296  0.098887541358  -0.226908702997
 C649   C  -0.171604636478  -0.084926012686  0.190033266334
 C650   C  0.225040720979  -0.361637902812  0.309966733665
 C651   C  -0.328395363522  -0.138362097188  0.086678623792
 C652   C  0.274959279021  -0.415073987314  0.413321376208
 C653   C  0.190033266334  -0.171604636478  -0.084926012686
 C654   C  -0.084926012686  0.190033266334  -0.171604636478
 C655   C  0.413321376208  0.274959279021  -0.415073987314
 C656   C  -0.361637902812  0.309966733665  0.225040720979
 C657   C  0.309966733665  0.225040720979  -0.361637902812
 C658   C  -0.138362097188  0.086678623792  -0.328395363522
 C659   C  0.086678623792  -0.328395363522  -0.138362097188
 C660   C  -0.415073987314  0.413321376208  0.274959279021
 C661   C  0.415073987314  0.328395363522  -0.309966733665
 C662   C  0.138362097188  -0.274959279021  -0.190033266334
 C663   C  0.361637902812  0.171604636478  -0.413321376208
 C664   C  0.084926012686  -0.225040720979  -0.086678623792
 C665   C  0.328395363522  -0.309966733665  0.415073987314
 C666   C  -0.309966733665  0.415073987314  0.328395363522
 C667   C  -0.225040720979  -0.086678623792  0.084926012686
 C668   C  -0.190033266334  0.138362097188  -0.274959279021
 C669   C  -0.274959279021  -0.190033266334  0.138362097188
 C670   C  -0.413321376208  0.361637902812  0.171604636478
 C671   C  0.171604636478  -0.413321376208  0.361637902812
 C672   C  -0.086678623792  0.084926012686  -0.225040720979
 C673   C  -0.062662120032  0.020186484053  0.406108627000
 C674   C  0.114077857053  -0.468770747032  0.093891373000
 C675   C  -0.437337879968  -0.031229252969  0.082848604084
 C676   C  0.385922142947  0.479813515947  0.417151395916
 C677   C  0.406108627000  -0.062662120032  0.020186484053
 C678   C  0.020186484053  0.406108627000  -0.062662120032
 C679   C  0.417151395916  0.385922142947  0.479813515947
 C680   C  -0.468770747032  0.093891373000  0.114077857053
 C681   C  0.093891373000  0.114077857053  -0.468770747032
 C682   C  -0.031229252969  0.082848604084  -0.437337879968
 C683   C  0.082848604084  -0.437337879968  -0.031229252969
 C684   C  0.479813515947  0.417151395916  0.385922142947
 C685   C  -0.479813515947  0.437337879968  -0.093891373000
 C686   C  0.031229252969  -0.385922142947  -0.406108627000
 C687   C  0.468770747032  0.062662120032  -0.417151395916
 C688   C  -0.020186484053  -0.114077857053  -0.082848604084
 C689   C  0.437337879968  -0.093891373000  -0.479813515947
 C690   C  -0.093891373000  -0.479813515947  0.437337879968
 C691   C  -0.114077857053  -0.082848604084  -0.020186484053
 C692   C  -0.406108627000  0.031229252969  -0.385922142947
 C693   C  -0.385922142947  -0.406108627000  0.031229252969
 C694   C  -0.417151395916  0.468770747032  0.062662120032
 C695   C  0.062662120032  -0.417151395916  0.468770747032
 C696   C  -0.082848604084  -0.020186484053  -0.114077857053
 C697   C  -0.081405320538  0.009051632650  0.331297640927
 C698   C  0.177753991723  -0.412702961465  0.168702359073
 C699   C  -0.418594679462  -0.087297038535  0.090456953188
 C700   C  0.322246008277  0.490948367350  0.409543046812
 C701   C  0.331297640927  -0.081405320538  0.009051632650
 C702   C  0.009051632650  0.331297640927  -0.081405320538
 C703   C  0.409543046812  0.322246008277  0.490948367350
 C704   C  -0.412702961465  0.168702359073  0.177753991723
 C705   C  0.168702359073  0.177753991723  -0.412702961465
 C706   C  -0.087297038535  0.090456953188  -0.418594679462
 C707   C  0.090456953188  -0.418594679462  -0.087297038535
 C708   C  0.490948367350  0.409543046812  0.322246008277
 C709   C  -0.490948367350  0.418594679462  -0.168702359073
 C710   C  0.087297038535  -0.322246008277  -0.331297640927
 C711   C  0.412702961465  0.081405320538  -0.409543046812
 C712   C  -0.009051632650  -0.177753991723  -0.090456953188
 C713   C  0.418594679462  -0.168702359073  -0.490948367350
 C714   C  -0.168702359073  -0.490948367350  0.418594679462
 C715   C  -0.177753991723  -0.090456953188  -0.009051632650
 C716   C  -0.331297640927  0.087297038535  -0.322246008277
 C717   C  -0.322246008277  -0.331297640927  0.087297038535
 C718   C  -0.409543046812  0.412702961465  0.081405320538
 C719   C  0.081405320538  -0.409543046812  0.412702961465
 C720   C  -0.090456953188  -0.009051632650  -0.177753991723
 C721   C  -0.200284554476  -0.065800468782  0.249863547760
 C722   C  0.184335983458  -0.450148102235  0.250136452241
 C723   C  -0.299715445525  -0.049851897765  0.134484085693
 C724   C  0.315664016542  -0.434199531218  0.365515914307
 C725   C  0.249863547760  -0.200284554476  -0.065800468782
 C726   C  -0.065800468782  0.249863547760  -0.200284554476
 C727   C  0.365515914307  0.315664016542  -0.434199531218
 C728   C  -0.450148102235  0.250136452241  0.184335983458
 C729   C  0.250136452241  0.184335983458  -0.450148102235
 C730   C  -0.049851897765  0.134484085693  -0.299715445525
 C731   C  0.134484085693  -0.299715445525  -0.049851897765
 C732   C  -0.434199531218  0.365515914307  0.315664016542
 C733   C  0.434199531218  0.299715445525  -0.250136452241
 C734   C  0.049851897765  -0.315664016542  -0.249863547760
 C735   C  0.450148102235  0.200284554476  -0.365515914307
 C736   C  0.065800468782  -0.184335983458  -0.134484085693
 C737   C  0.299715445525  -0.250136452241  0.434199531218
 C738   C  -0.250136452241  0.434199531218  0.299715445525
 C739   C  -0.184335983458  -0.134484085693  0.065800468782
 C740   C  -0.249863547760  0.049851897765  -0.315664016542
 C741   C  -0.315664016542  -0.249863547760  0.049851897765
 C742   C  -0.365515914307  0.450148102235  0.200284554476
 C743   C  0.200284554476  -0.365515914307  0.450148102235
 C744   C  -0.134484085693  0.065800468782  -0.184335983458
 C745   C  -0.124070254836  -0.026229043164  0.313184634053
 C746   C  0.160586322784  -0.437254888889  0.186815365947
 C747   C  -0.375929745164  -0.062745111111  0.097841211672
 C748   C  0.339413677216  -0.473770956836  0.402158788328
 C749   C  0.313184634053  -0.124070254836  -0.026229043164
 C750   C  -0.026229043164  0.313184634053  -0.124070254836
 C751   C  0.402158788328  0.339413677216  -0.473770956836
 C752   C  -0.437254888889  0.186815365947  0.160586322784
 C753   C  0.186815365947  0.160586322784  -0.437254888889
 C754   C  -0.062745111111  0.097841211672  -0.375929745164
 C755   C  0.097841211672  -0.375929745164  -0.062745111111
 C756   C  -0.473770956836  0.402158788328  0.339413677216
 C757   C  0.473770956836  0.375929745164  -0.186815365947
 C758   C  0.062745111111  -0.339413677216  -0.313184634053
 C759   C  0.437254888889  0.124070254836  -0.402158788328
 C760   C  0.026229043164  -0.160586322784  -0.097841211672
 C761   C  0.375929745164  -0.186815365947  0.473770956836
 C762   C  -0.186815365947  0.473770956836  0.375929745164
 C763   C  -0.160586322784  -0.097841211672  0.026229043164
 C764   C  -0.313184634053  0.062745111111  -0.339413677216
 C765   C  -0.339413677216  -0.313184634053  0.062745111111
 C766   C  -0.402158788328  0.437254888889  0.124070254836
 C767   C  0.124070254836  -0.402158788328  0.437254888889
 C768   C  -0.097841211672  0.026229043164  -0.160586322784
 C769   C  -0.141899814660  -0.062063331285  0.234847254115
 C770   C  0.203089414599  -0.376747068775  0.265152745885
 C771   C  -0.358100185340  -0.123252931225  0.079836483374
 C772   C  0.296910585401  -0.437936668715  0.420163516626
 C773   C  0.234847254115  -0.141899814660  -0.062063331285
 C774   C  -0.062063331285  0.234847254115  -0.141899814660
 C775   C  0.420163516626  0.296910585401  -0.437936668715
 C776   C  -0.376747068775  0.265152745885  0.203089414599
 C777   C  0.265152745885  0.203089414599  -0.376747068775
 C778   C  -0.123252931225  0.079836483374  -0.358100185340
 C779   C  0.079836483374  -0.358100185340  -0.123252931225
 C780   C  -0.437936668715  0.420163516626  0.296910585401
 C781   C  0.437936668715  0.358100185340  -0.265152745885
 C782   C  0.123252931225  -0.296910585401  -0.234847254115
 C783   C  0.376747068775  0.141899814660  -0.420163516626
 C784   C  0.062063331285  -0.203089414599  -0.079836483374
 C785   C  0.358100185340  -0.265152745885  0.437936668715
 C786   C  -0.265152745885  0.437936668715  0.358100185340
 C787   C  -0.203089414599  -0.079836483374  0.062063331285
 C788   C  -0.234847254115  0.123252931225  -0.296910585401
 C789   C  -0.296910585401  -0.234847254115  0.123252931225
 C790   C  -0.420163516626  0.376747068775  0.141899814660
 C791   C  0.141899814660  -0.420163516626  0.376747068775
 C792   C  -0.079836483374  0.062063331285  -0.203089414599
 C793   C  -0.105480510967  -0.012979124231  0.387450429438
 C794   C  0.099570446332  -0.492930940404  0.112549570563
 C795   C  -0.394519489033  -0.007069059596  0.092501386736
 C796   C  0.400429553668  -0.487020875769  0.407498613264
 C797   C  0.387450429438  -0.105480510967  -0.012979124231
 C798   C  -0.012979124231  0.387450429438  -0.105480510967
 C799   C  0.407498613264  0.400429553668  -0.487020875769
 C800   C  -0.492930940404  0.112549570563  0.099570446332
 C801   C  0.112549570563  0.099570446332  -0.492930940404
 C802   C  -0.007069059596  0.092501386736  -0.394519489033
 C803   C  0.092501386736  -0.394519489033  -0.007069059596
 C804   C  -0.487020875769  0.407498613264  0.400429553668
 C805   C  0.487020875769  0.394519489033  -0.112549570563
 C806   C  0.007069059596  -0.400429553668  -0.387450429438
 C807   C  0.492930940404  0.105480510967  -0.407498613264
 C808   C  0.012979124231  -0.099570446332  -0.092501386736
 C809   C  0.394519489033  -0.112549570563  0.487020875769
 C810   C  -0.112549570563  0.487020875769  0.394519489033
 C811   C  -0.099570446332  -0.092501386736  0.012979124231
 C812   C  -0.387450429438  0.007069059596  -0.400429553668
 C813   C  -0.400429553668  -0.387450429438  0.007069059596
 C814   C  -0.407498613264  0.492930940404  0.105480510967
 C815   C  0.105480510967  -0.407498613264  0.492930940404
 C816   C  -0.092501386736  0.012979124231  -0.099570446332
 C817   C  -0.050766078366  0.031596623003  0.377490346646
 C818   C  0.154106276358  -0.428256425011  0.122509653354
 C819   C  -0.449233921634  -0.071743574989  0.082362701369
 C820   C  0.345893723642  0.468403376997  0.417637298631
 C821   C  0.377490346646  -0.050766078366  0.031596623003
 C822   C  0.031596623003  0.377490346646  -0.050766078366
 C823   C  0.417637298631  0.345893723642  0.468403376997
 C824   C  -0.428256425011  0.122509653354  0.154106276358
 C825   C  0.122509653354  0.154106276358  -0.428256425011
 C826   C  -0.071743574989  0.082362701369  -0.449233921634
 C827   C  0.082362701369  -0.449233921634  -0.071743574989
 C828   C  0.468403376997  0.417637298631  0.345893723642
 C829   C  -0.468403376997  0.449233921634  -0.122509653354
 C830   C  0.071743574989  -0.345893723642  -0.377490346646
 C831   C  0.428256425011  0.050766078366  -0.417637298631
 C832   C  -0.031596623003  -0.154106276358  -0.082362701369
 C833   C  0.449233921634  -0.122509653354  -0.468403376997
 C834   C  -0.122509653354  -0.468403376997  0.449233921634
 C835   C  -0.154106276358  -0.082362701369  -0.031596623003
 C836   C  -0.377490346646  0.071743574989  -0.345893723642
 C837   C  -0.345893723642  -0.377490346646  0.071743574989
 C838   C  -0.417637298631  0.428256425011  0.050766078366
 C839   C  0.050766078366  -0.417637298631  0.428256425011
 C840   C  -0.082362701369  -0.031596623003  -0.154106276358
 B841   B  -0.029886259807  0.043398639821  0.455275230810
 B842   B  0.088123409011  -0.485161490616  0.044724769190
 B843   B  -0.470113740193  -0.014838509383  0.073284899628
 B844   B  0.411876590989  0.456601360179  0.426715100372
 B845   B  0.455275230810  -0.029886259807  0.043398639821
 B846   B  0.043398639821  0.455275230810  -0.029886259807
 B847   B  0.426715100372  0.411876590989  0.456601360179
 B848   B  -0.485161490616  0.044724769190  0.088123409011
 B849   B  0.044724769190  0.088123409011  -0.485161490616
 B850   B  -0.014838509383  0.073284899628  -0.470113740193
 B851   B  0.073284899628  -0.470113740193  -0.014838509383
 B852   B  0.456601360179  0.426715100372  0.411876590989
 B853   B  -0.456601360179  0.470113740193  -0.044724769190
 B854   B  0.014838509383  -0.411876590989  -0.455275230810
 B855   B  0.485161490616  0.029886259807  -0.426715100372
 B856   B  -0.043398639821  -0.088123409011  -0.073284899628
 B857   B  0.470113740193  -0.044724769190  -0.456601360179
 B858   B  -0.044724769190  -0.456601360179  0.470113740193
 B859   B  -0.088123409011  -0.073284899628  -0.043398639821
 B860   B  -0.455275230810  0.014838509383  -0.411876590989
 B861   B  -0.411876590989  -0.455275230810  0.014838509383
 B862   B  -0.426715100372  0.485161490616  0.029886259807
 B863   B  0.029886259807  -0.426715100372  0.485161490616
 B864   B  -0.073284899628  -0.043398639821  -0.088123409011
 C865   C  -0.135225859141  -0.035909085403  0.342202561850
 C866   C  0.121888352747  -0.477428420991  0.157797438150
 C867   C  -0.364774140859  -0.022571579009  0.099316773738
 C868   C  0.378111647253  -0.464090914597  0.400683226262
 C869   C  0.342202561850  -0.135225859141  -0.035909085403
 C870   C  -0.035909085403  0.342202561850  -0.135225859141
 C871   C  0.400683226262  0.378111647253  -0.464090914597
 C872   C  -0.477428420991  0.157797438150  0.121888352747
 C873   C  0.157797438150  0.121888352747  -0.477428420991
 C874   C  -0.022571579009  0.099316773738  -0.364774140859
 C875   C  0.099316773738  -0.364774140859  -0.022571579009
 C876   C  -0.464090914597  0.400683226262  0.378111647253
 C877   C  0.464090914597  0.364774140859  -0.157797438150
 C878   C  0.022571579009  -0.378111647253  -0.342202561850
 C879   C  0.477428420991  0.135225859141  -0.400683226262
 C880   C  0.035909085403  -0.121888352747  -0.099316773738
 C881   C  0.364774140859  -0.157797438150  0.464090914597
 C882   C  -0.157797438150  0.464090914597  0.364774140859
 C883   C  -0.121888352747  -0.099316773738  0.035909085403
 C884   C  -0.342202561850  0.022571579009  -0.378111647253
 C885   C  -0.378111647253  -0.342202561850  0.022571579009
 C886   C  -0.400683226262  0.477428420991  0.135225859141
 C887   C  0.135225859141  -0.400683226262  0.477428420991
 C888   C  -0.099316773738  0.035909085403  -0.121888352747
 C889   C  -0.375000000000  0.375000000000  0.250000000000
 C890   C  -0.125000000000  0.125000000000  -0.250000000000
 C891   C  0.250000000000  -0.375000000000  0.375000000000
 C892   C  0.375000000000  0.250000000000  -0.375000000000
 C893   C  -0.250000000000  -0.125000000000  0.125000000000
 C894   C  0.125000000000  -0.250000000000  -0.125000000000
