data_MSUCOF-4-FeCp_BULK_OPTGEOM_DZ_optimized.outout

_cell_length_a                         37.30152359
_cell_length_b                         37.30152359
_cell_length_c                         37.30152359
_cell_angle_alpha                      109.47122100
_cell_angle_beta                       109.47122100
_cell_angle_gamma                      109.47122100
_symmetry_space_group_name_H-M         'P 1'
_symmetry_Int_Tables_number            1

loop_
_symmetry_equiv_pos_as_xyz
   'x, y, z'

loop_
   _atom_site_label
   _atom_site_type_symbol
   _atom_site_fract_x
   _atom_site_fract_y
   _atom_site_fract_z
 H001   H  0.328407332395  0.044197451826  0.014245058891
 H002   H  -0.470047607065  0.314162273504  0.485754941109
 H003   H  0.171592667605  0.185837726496  -0.284209880570
 H004   H  -0.029952392934  0.455802548174  -0.215790119430
 H005   H  0.014245058891  0.328407332395  0.044197451826
 H006   H  0.044197451826  0.014245058891  0.328407332395
 H007   H  -0.215790119430  -0.029952392934  0.455802548174
 H008   H  0.314162273504  0.485754941109  -0.470047607065
 H009   H  0.485754941109  -0.470047607065  0.314162273504
 H010   H  0.185837726496  -0.284209880570  0.171592667605
 H011   H  -0.284209880570  0.171592667605  0.185837726496
 H012   H  0.455802548174  -0.215790119430  -0.029952392934
 H013   H  -0.455802548174  -0.171592667605  -0.485754941109
 H014   H  -0.185837726496  0.029952392934  -0.014245058891
 H015   H  -0.314162273504  -0.328407332395  0.215790119430
 H016   H  -0.044197451826  0.470047607065  0.284209880570
 H017   H  -0.171592667605  -0.485754941109  -0.455802548174
 H018   H  -0.485754941109  -0.455802548174  -0.171592667605
 H019   H  0.470047607065  0.284209880570  -0.044197451826
 H020   H  -0.014245058891  -0.185837726496  0.029952392934
 H021   H  0.029952392934  -0.014245058891  -0.185837726496
 H022   H  0.215790119430  -0.314162273504  -0.328407332395
 H023   H  -0.328407332395  0.215790119430  -0.314162273504
 H024   H  0.284209880570  -0.044197451826  0.470047607065
 H025   H  0.295701906305  -0.083018050053  -0.084834634484
 H026   H  -0.498183415569  0.380536540789  -0.415165365516
 H027   H  0.204298093695  0.119463459211  -0.378719956358
 H028   H  -0.001816584431  -0.416981949947  -0.121280043642
 H029   H  -0.084834634484  0.295701906305  -0.083018050053
 H030   H  -0.083018050053  -0.084834634484  0.295701906305
 H031   H  -0.121280043642  -0.001816584431  -0.416981949947
 H032   H  0.380536540789  -0.415165365516  -0.498183415569
 H033   H  -0.415165365516  -0.498183415569  0.380536540789
 H034   H  0.119463459211  -0.378719956358  0.204298093695
 H035   H  -0.378719956358  0.204298093695  0.119463459211
 H036   H  -0.416981949947  -0.121280043642  -0.001816584431
 H037   H  0.416981949947  -0.204298093695  0.415165365516
 H038   H  -0.119463459211  0.001816584431  0.084834634484
 H039   H  -0.380536540789  -0.295701906305  0.121280043642
 H040   H  0.083018050053  0.498183415569  0.378719956358
 H041   H  -0.204298093695  0.415165365516  0.416981949947
 H042   H  0.415165365516  0.416981949947  -0.204298093695
 H043   H  0.498183415569  0.378719956358  0.083018050053
 H044   H  0.084834634484  -0.119463459211  0.001816584431
 H045   H  0.001816584431  0.084834634484  -0.119463459211
 H046   H  0.121280043642  -0.380536540789  -0.295701906305
 H047   H  -0.295701906305  0.121280043642  -0.380536540789
 H048   H  0.378719956358  0.083018050053  0.498183415569
 H049   H  0.383235842530  -0.030144999814  -0.042090106036
 H050   H  -0.488054893778  0.425325948566  -0.457909893964
 H051   H  0.116764157470  0.074674051434  -0.413380842344
 H052   H  -0.011945106222  -0.469855000186  -0.086619157656
 H053   H  -0.042090106036  0.383235842530  -0.030144999814
 H054   H  -0.030144999814  -0.042090106036  0.383235842530
 H055   H  -0.086619157656  -0.011945106222  -0.469855000186
 H056   H  0.425325948566  -0.457909893964  -0.488054893778
 H057   H  -0.457909893964  -0.488054893778  0.425325948566
 H058   H  0.074674051434  -0.413380842344  0.116764157470
 H059   H  -0.413380842344  0.116764157470  0.074674051434
 H060   H  -0.469855000186  -0.086619157656  -0.011945106222
 H061   H  0.469855000186  -0.116764157470  0.457909893964
 H062   H  -0.074674051434  0.011945106222  0.042090106036
 H063   H  -0.425325948566  -0.383235842530  0.086619157656
 H064   H  0.030144999814  0.488054893778  0.413380842344
 H065   H  -0.116764157470  0.457909893964  0.469855000186
 H066   H  0.457909893964  0.469855000186  -0.116764157470
 H067   H  0.488054893778  0.413380842344  0.030144999814
 H068   H  0.042090106036  -0.074674051434  0.011945106222
 H069   H  0.011945106222  0.042090106036  -0.074674051434
 H070   H  0.086619157656  -0.425325948566  -0.383235842530
 H071   H  -0.383235842530  0.086619157656  -0.425325948566
 H072   H  0.413380842344  0.030144999814  0.488054893778
 H073   H  0.261371262953  -0.036771212551  -0.050334882676
 H074   H  -0.486436329874  0.311706145629  -0.449665117324
 H075   H  0.238628737047  0.188293854371  -0.298142475503
 H076   H  -0.013563670126  -0.463228787450  -0.201857524497
 H077   H  -0.050334882676  0.261371262953  -0.036771212551
 H078   H  -0.036771212551  -0.050334882676  0.261371262953
 H079   H  -0.201857524497  -0.013563670126  -0.463228787450
 H080   H  0.311706145629  -0.449665117324  -0.486436329874
 H081   H  -0.449665117324  -0.486436329874  0.311706145629
 H082   H  0.188293854371  -0.298142475503  0.238628737047
 H083   H  -0.298142475503  0.238628737047  0.188293854371
 H084   H  -0.463228787450  -0.201857524497  -0.013563670126
 H085   H  0.463228787450  -0.238628737047  0.449665117324
 H086   H  -0.188293854371  0.013563670126  0.050334882676
 H087   H  -0.311706145629  -0.261371262953  0.201857524497
 H088   H  0.036771212551  0.486436329874  0.298142475503
 H089   H  -0.238628737047  0.449665117324  0.463228787450
 H090   H  0.449665117324  0.463228787450  -0.238628737047
 H091   H  0.486436329874  0.298142475503  0.036771212551
 H092   H  0.050334882676  -0.188293854371  0.013563670126
 H093   H  0.013563670126  0.050334882676  -0.188293854371
 H094   H  0.201857524497  -0.311706145629  -0.261371262953
 H095   H  -0.261371262953  0.201857524497  -0.311706145629
 H096   H  0.298142475503  0.036771212551  0.486436329874
 C097   C  0.331071524537  0.018489184663  -0.007239079234
 C098   C  -0.474271736103  0.338310603770  -0.492760920766
 C099   C  0.168928475464  0.161689396229  -0.312582339873
 C100   C  -0.025728263897  0.481510815337  -0.187417660127
 C101   C  -0.007239079234  0.331071524537  0.018489184663
 C102   C  0.018489184663  -0.007239079234  0.331071524537
 C103   C  -0.187417660127  -0.025728263897  0.481510815337
 C104   C  0.338310603770  -0.492760920766  -0.474271736103
 C105   C  -0.492760920766  -0.474271736103  0.338310603770
 C106   C  0.161689396229  -0.312582339873  0.168928475464
 C107   C  -0.312582339873  0.168928475464  0.161689396229
 C108   C  0.481510815337  -0.187417660127  -0.025728263897
 C109   C  -0.481510815337  -0.168928475464  0.492760920766
 C110   C  -0.161689396229  0.025728263897  0.007239079234
 C111   C  -0.338310603770  -0.331071524537  0.187417660127
 C112   C  -0.018489184663  0.474271736103  0.312582339873
 C113   C  -0.168928475464  0.492760920766  -0.481510815337
 C114   C  0.492760920766  -0.481510815337  -0.168928475464
 C115   C  0.474271736103  0.312582339873  -0.018489184663
 C116   C  0.007239079234  -0.161689396229  0.025728263897
 C117   C  0.025728263897  0.007239079234  -0.161689396229
 C118   C  0.187417660127  -0.338310603770  -0.331071524537
 C119   C  -0.331071524537  0.187417660127  -0.338310603770
 C120   C  0.312582339873  -0.018489184663  0.474271736103
 C121   C  0.370769332896  0.021112311517  -0.005395715443
 C122   C  -0.473491973040  0.376165048339  -0.494604284557
 C123   C  0.129230667104  0.123834951661  -0.349657021379
 C124   C  -0.026508026960  0.478887688483  -0.150342978621
 C125   C  -0.005395715443  0.370769332896  0.021112311517
 C126   C  0.021112311517  -0.005395715443  0.370769332896
 C127   C  -0.150342978621  -0.026508026960  0.478887688483
 C128   C  0.376165048339  -0.494604284557  -0.473491973040
 C129   C  -0.494604284557  -0.473491973040  0.376165048339
 C130   C  0.123834951661  -0.349657021379  0.129230667104
 C131   C  -0.349657021379  0.129230667104  0.123834951661
 C132   C  0.478887688483  -0.150342978621  -0.026508026960
 C133   C  -0.478887688483  -0.129230667104  0.494604284557
 C134   C  -0.123834951661  0.026508026960  0.005395715443
 C135   C  -0.376165048339  -0.370769332896  0.150342978621
 C136   C  -0.021112311517  0.473491973040  0.349657021379
 C137   C  -0.129230667104  0.494604284557  -0.478887688483
 C138   C  0.494604284557  -0.478887688483  -0.129230667104
 C139   C  0.473491973040  0.349657021379  -0.021112311517
 C140   C  0.005395715443  -0.123834951661  0.026508026960
 C141   C  0.026508026960  0.005395715443  -0.123834951661
 C142   C  0.150342978621  -0.376165048339  -0.370769332896
 C143   C  -0.370769332896  0.150342978621  -0.376165048339
 C144   C  0.349657021379  -0.021112311517  0.473491973040
 C145   C  0.295655497640  -0.024473830022  -0.041265112797
 C146   C  -0.483208717224  0.336920610437  -0.458734887203
 C147   C  0.204344502360  0.163079389563  -0.320129327661
 C148   C  -0.016791282776  -0.475526169979  -0.179870672338
 C149   C  -0.041265112797  0.295655497640  -0.024473830022
 C150   C  -0.024473830022  -0.041265112797  0.295655497640
 C151   C  -0.179870672338  -0.016791282776  -0.475526169979
 C152   C  0.336920610437  -0.458734887203  -0.483208717224
 C153   C  -0.458734887203  -0.483208717224  0.336920610437
 C154   C  0.163079389563  -0.320129327661  0.204344502360
 C155   C  -0.320129327661  0.204344502360  0.163079389563
 C156   C  -0.475526169979  -0.179870672338  -0.016791282776
 C157   C  0.475526169979  -0.204344502360  0.458734887203
 C158   C  -0.163079389563  0.016791282776  0.041265112797
 C159   C  -0.336920610437  -0.295655497640  0.179870672338
 C160   C  0.024473830022  0.483208717224  0.320129327661
 C161   C  -0.204344502360  0.458734887203  0.475526169979
 C162   C  0.458734887203  0.475526169979  -0.204344502360
 C163   C  0.483208717224  0.320129327661  0.024473830022
 C164   C  0.041265112797  -0.163079389563  0.016791282776
 C165   C  0.016791282776  0.041265112797  -0.163079389563
 C166   C  0.179870672338  -0.336920610437  -0.295655497640
 C167   C  -0.295655497640  0.179870672338  -0.336920610437
 C168   C  0.320129327661  0.024473830022  0.483208717224
Fe169  Fe  0.340785747552  -0.027426237657  0.004752823133
Fe170  Fe  0.467820939210  0.336032924419  0.495247176867
Fe171  Fe  0.159214252448  0.163967075581  -0.368211985209
Fe172  Fe  0.032179060790  -0.472573762343  -0.131788014791
Fe173  Fe  0.004752823133  0.340785747552  -0.027426237657
Fe174  Fe  -0.027426237657  0.004752823133  0.340785747552
Fe175  Fe  -0.131788014791  0.032179060790  -0.472573762343
Fe176  Fe  0.336032924419  0.495247176867  0.467820939210
Fe177  Fe  0.495247176867  0.467820939210  0.336032924419
Fe178  Fe  0.163967075581  -0.368211985209  0.159214252448
Fe179  Fe  -0.368211985209  0.159214252448  0.163967075581
Fe180  Fe  -0.472573762343  -0.131788014791  0.032179060790
Fe181  Fe  0.472573762343  -0.159214252448  -0.495247176867
Fe182  Fe  -0.163967075581  -0.032179060790  -0.004752823133
Fe183  Fe  -0.336032924419  -0.340785747552  0.131788014791
Fe184  Fe  0.027426237657  -0.467820939210  0.368211985209
Fe185  Fe  -0.159214252448  -0.495247176867  0.472573762343
Fe186  Fe  -0.495247176867  0.472573762343  -0.159214252448
Fe187  Fe  -0.467820939210  0.368211985209  0.027426237657
Fe188  Fe  -0.004752823133  -0.163967075581  -0.032179060790
Fe189  Fe  -0.032179060790  -0.004752823133  -0.163967075581
Fe190  Fe  0.131788014791  -0.336032924419  -0.340785747552
Fe191  Fe  -0.340785747552  0.131788014791  -0.336032924419
Fe192  Fe  0.368211985209  0.027426237657  -0.467820939210
 H193   H  0.417096200067  0.019526828351  0.086024119435
 H194   H  0.433502708916  0.331072080632  0.413975880565
 H195   H  0.082903799933  0.168927919368  -0.397569371716
 H196   H  0.066497291084  0.480473171649  -0.102430628283
 H197   H  0.086024119435  0.417096200067  0.019526828351
 H198   H  0.019526828351  0.086024119435  0.417096200067
 H199   H  -0.102430628283  0.066497291084  0.480473171649
 H200   H  0.331072080632  0.413975880565  0.433502708916
 H201   H  0.413975880565  0.433502708916  0.331072080632
 H202   H  0.168927919368  -0.397569371716  0.082903799933
 H203   H  -0.397569371716  0.082903799933  0.168927919368
 H204   H  0.480473171649  -0.102430628283  0.066497291084
 H205   H  -0.480473171649  -0.082903799933  -0.413975880565
 H206   H  -0.168927919368  -0.066497291084  -0.086024119435
 H207   H  -0.331072080632  -0.417096200067  0.102430628283
 H208   H  -0.019526828351  -0.433502708916  0.397569371716
 H209   H  -0.082903799933  -0.413975880565  -0.480473171649
 H210   H  -0.413975880565  -0.480473171649  -0.082903799933
 H211   H  -0.433502708916  0.397569371716  -0.019526828351
 H212   H  -0.086024119435  -0.168927919368  -0.066497291084
 H213   H  -0.066497291084  -0.086024119435  -0.168927919368
 H214   H  0.102430628283  -0.331072080632  -0.417096200067
 H215   H  -0.417096200067  0.102430628283  -0.331072080632
 H216   H  0.397569371716  -0.019526828351  -0.433502708916
 C217   C  0.313527115505  -0.048498353768  -0.060118989457
 C218   C  -0.488379364311  0.373646104962  -0.439881010543
 C219   C  0.186472884495  0.126353895038  -0.362025469273
 C220   C  -0.011620635689  -0.451501646232  -0.137974530727
 C221   C  -0.060118989457  0.313527115505  -0.048498353768
 C222   C  -0.048498353768  -0.060118989457  0.313527115505
 C223   C  -0.137974530727  -0.011620635689  -0.451501646232
 C224   C  0.373646104962  -0.439881010543  -0.488379364311
 C225   C  -0.439881010543  -0.488379364311  0.373646104962
 C226   C  0.126353895038  -0.362025469273  0.186472884495
 C227   C  -0.362025469273  0.186472884495  0.126353895038
 C228   C  -0.451501646232  -0.137974530727  -0.011620635689
 C229   C  0.451501646232  -0.186472884495  0.439881010543
 C230   C  -0.126353895038  0.011620635689  0.060118989457
 C231   C  -0.373646104962  -0.313527115505  0.137974530727
 C232   C  0.048498353768  0.488379364311  0.362025469273
 C233   C  -0.186472884495  0.439881010543  0.451501646232
 C234   C  0.439881010543  0.451501646232  -0.186472884495
 C235   C  0.488379364311  0.362025469273  0.048498353768
 C236   C  0.060118989457  -0.126353895038  0.011620635689
 C237   C  0.011620635689  0.060118989457  -0.126353895038
 C238   C  0.137974530727  -0.373646104962  -0.313527115505
 C239   C  -0.313527115505  0.137974530727  -0.373646104962
 C240   C  0.362025469273  0.048498353768  0.488379364311
 H241   H  0.340628046955  0.007280647509  0.083868213468
 H242   H  0.423412434040  0.256759833486  0.416131786532
 H243   H  0.159371953045  0.243240166514  -0.333347399446
 H244   H  0.076587565960  0.492719352491  -0.166652600554
 H245   H  0.083868213468  0.340628046955  0.007280647509
 H246   H  0.007280647509  0.083868213468  0.340628046955
 H247   H  -0.166652600554  0.076587565960  0.492719352491
 H248   H  0.256759833486  0.416131786532  0.423412434040
 H249   H  0.416131786532  0.423412434040  0.256759833486
 H250   H  0.243240166514  -0.333347399446  0.159371953045
 H251   H  -0.333347399446  0.159371953045  0.243240166514
 H252   H  0.492719352491  -0.166652600554  0.076587565960
 H253   H  -0.492719352491  -0.159371953045  -0.416131786532
 H254   H  -0.243240166514  -0.076587565960  -0.083868213468
 H255   H  -0.256759833486  -0.340628046955  0.166652600554
 H256   H  -0.007280647509  -0.423412434040  0.333347399446
 H257   H  -0.159371953045  -0.416131786532  -0.492719352491
 H258   H  -0.416131786532  -0.492719352491  -0.159371953045
 H259   H  -0.423412434040  0.333347399446  -0.007280647509
 H260   H  -0.083868213468  -0.243240166514  -0.076587565960
 H261   H  -0.076587565960  -0.083868213468  -0.243240166514
 H262   H  0.166652600554  -0.256759833486  -0.340628046955
 H263   H  -0.340628046955  0.166652600554  -0.256759833486
 H264   H  0.333347399446  -0.007280647509  -0.423412434040
 C265   C  0.311478942283  -0.060702159826  0.029525780395
 C266   C  0.409772059779  0.281953161888  0.470474219605
 C267   C  0.188521057717  0.218046838112  -0.372181102109
 C268   C  0.090227940221  -0.439297840174  -0.127818897891
 C269   C  0.029525780395  0.311478942283  -0.060702159826
 C270   C  -0.060702159826  0.029525780395  0.311478942283
 C271   C  -0.127818897891  0.090227940221  -0.439297840174
 C272   C  0.281953161888  0.470474219605  0.409772059779
 C273   C  0.470474219605  0.409772059779  0.281953161888
 C274   C  0.218046838112  -0.372181102109  0.188521057717
 C275   C  -0.372181102109  0.188521057717  0.218046838112
 C276   C  -0.439297840174  -0.127818897891  0.090227940221
 C277   C  0.439297840174  -0.188521057717  -0.470474219605
 C278   C  -0.218046838112  -0.090227940221  -0.029525780395
 C279   C  -0.281953161888  -0.311478942283  0.127818897891
 C280   C  0.060702159826  -0.409772059779  0.372181102109
 C281   C  -0.188521057717  -0.470474219605  0.439297840174
 C282   C  -0.470474219605  0.439297840174  -0.188521057717
 C283   C  -0.409772059779  0.372181102109  0.060702159826
 C284   C  -0.029525780395  -0.218046838112  -0.090227940221
 C285   C  -0.090227940221  -0.029525780395  -0.218046838112
 C286   C  0.127818897891  -0.281953161888  -0.311478942283
 C287   C  -0.311478942283  0.127818897891  -0.281953161888
 C288   C  0.372181102109  0.060702159826  -0.409772059779
 C289   C  0.385665450110  -0.010653374804  0.064868408440
 C290   C  0.424478216756  0.320797041670  0.435131591560
 C291   C  0.114334549890  0.179202958330  -0.396318824914
 C292   C  0.075521783244  -0.489346625196  -0.103681175086
 C293   C  0.064868408440  0.385665450110  -0.010653374804
 C294   C  -0.010653374804  0.064868408440  0.385665450110
 C295   C  -0.103681175086  0.075521783244  -0.489346625196
 C296   C  0.320797041670  0.435131591560  0.424478216756
 C297   C  0.435131591560  0.424478216756  0.320797041670
 C298   C  0.179202958330  -0.396318824914  0.114334549890
 C299   C  -0.396318824914  0.114334549890  0.179202958330
 C300   C  -0.489346625196  -0.103681175086  0.075521783244
 C301   C  0.489346625196  -0.114334549890  -0.435131591560
 C302   C  -0.179202958330  -0.075521783244  -0.064868408440
 C303   C  -0.320797041670  -0.385665450110  0.103681175086
 C304   C  0.010653374804  -0.424478216756  0.396318824914
 C305   C  -0.114334549890  -0.435131591560  0.489346625196
 C306   C  -0.435131591560  0.489346625196  -0.114334549890
 C307   C  -0.424478216756  0.396318824914  0.010653374804
 C308   C  -0.064868408440  -0.179202958330  -0.075521783244
 C309   C  -0.075521783244  -0.064868408440  -0.179202958330
 C310   C  0.103681175086  -0.320797041670  -0.385665450110
 C311   C  -0.385665450110  0.103681175086  -0.320797041670
 C312   C  0.396318824914  0.010653374804  -0.424478216756
 C313   C  0.345307881032  -0.017318686683  0.063587048653
 C314   C  0.419094264664  0.281720832379  0.436412951347
 C315   C  0.154692118968  0.218279167621  -0.362626567716
 C316   C  0.080905735336  -0.482681313317  -0.137373432284
 C317   C  0.063587048653  0.345307881032  -0.017318686683
 C318   C  -0.017318686683  0.063587048653  0.345307881032
 C319   C  -0.137373432284  0.080905735336  -0.482681313317
 C320   C  0.281720832379  0.436412951347  0.419094264664
 C321   C  0.436412951347  0.419094264664  0.281720832379
 C322   C  0.218279167621  -0.362626567716  0.154692118968
 C323   C  -0.362626567716  0.154692118968  0.218279167621
 C324   C  -0.482681313317  -0.137373432284  0.080905735336
 C325   C  0.482681313317  -0.154692118968  -0.436412951347
 C326   C  -0.218279167621  -0.080905735336  -0.063587048653
 C327   C  -0.281720832379  -0.345307881032  0.137373432284
 C328   C  0.017318686683  -0.419094264664  0.362626567716
 C329   C  -0.154692118968  -0.436412951347  0.482681313317
 C330   C  -0.436412951347  0.482681313317  -0.154692118968
 C331   C  -0.419094264664  0.362626567716  0.017318686683
 C332   C  -0.063587048653  -0.218279167621  -0.080905735336
 C333   C  -0.080905735336  -0.063587048653  -0.218279167621
 C334   C  0.137373432284  -0.281720832379  -0.345307881032
 C335   C  -0.345307881032  0.137373432284  -0.281720832379
 C336   C  0.362626567716  0.017318686683  -0.419094264664
 H337   H  0.277184199448  -0.075262240601  0.020561743306
 H338   H  0.404176016092  0.256622456142  0.479438256694
 H339   H  0.222815800552  0.243377543858  -0.352446440049
 H340   H  0.095823983908  -0.424737759399  -0.147553559951
 H341   H  0.020561743306  0.277184199448  -0.075262240601
 H342   H  -0.075262240601  0.020561743306  0.277184199448
 H343   H  -0.147553559951  0.095823983908  -0.424737759399
 H344   H  0.256622456142  0.479438256694  0.404176016092
 H345   H  0.479438256694  0.404176016092  0.256622456142
 H346   H  0.243377543858  -0.352446440049  0.222815800552
 H347   H  -0.352446440049  0.222815800552  0.243377543858
 H348   H  -0.424737759399  -0.147553559951  0.095823983908
 H349   H  0.424737759399  -0.222815800552  -0.479438256694
 H350   H  -0.243377543858  -0.095823983908  -0.020561743306
 H351   H  -0.256622456142  -0.277184199448  0.147553559951
 H352   H  0.075262240601  -0.404176016092  0.352446440049
 H353   H  -0.222815800552  -0.479438256694  0.424737759399
 H354   H  -0.479438256694  0.424737759399  -0.222815800552
 H355   H  -0.404176016092  0.352446440049  0.075262240601
 H356   H  -0.020561743306  -0.243377543858  -0.095823983908
 H357   H  -0.095823983908  -0.020561743306  -0.243377543858
 H358   H  0.147553559951  -0.256622456142  -0.277184199448
 H359   H  -0.277184199448  0.147553559951  -0.256622456142
 H360   H  0.352446440049  0.075262240601  -0.404176016092
 H361   H  0.403639677676  0.048899394491  0.018069970736
 H362   H  -0.469170576245  0.385569706940  0.481930029264
 H363   H  0.096360322324  0.114430293060  -0.354740283185
 H364   H  -0.030829423755  0.451100605509  -0.145259716815
 H365   H  0.018069970736  0.403639677676  0.048899394491
 H366   H  0.048899394491  0.018069970736  0.403639677676
 H367   H  -0.145259716815  -0.030829423755  0.451100605509
 H368   H  0.385569706940  0.481930029264  -0.469170576245
 H369   H  0.481930029264  -0.469170576245  0.385569706940
 H370   H  0.114430293060  -0.354740283185  0.096360322324
 H371   H  -0.354740283185  0.096360322324  0.114430293060
 H372   H  0.451100605509  -0.145259716815  -0.030829423755
 H373   H  -0.451100605509  -0.096360322324  -0.481930029264
 H374   H  -0.114430293060  0.030829423755  -0.018069970736
 H375   H  -0.385569706940  -0.403639677676  0.145259716815
 H376   H  -0.048899394491  0.469170576245  0.354740283185
 H377   H  -0.096360322324  -0.481930029264  -0.451100605509
 H378   H  -0.481930029264  -0.451100605509  -0.096360322324
 H379   H  0.469170576245  0.354740283185  -0.048899394491
 H380   H  -0.018069970736  -0.114430293060  0.030829423755
 H381   H  0.030829423755  -0.018069970736  -0.114430293060
 H382   H  0.145259716815  -0.385569706940  -0.403639677676
 H383   H  -0.403639677676  0.145259716815  -0.385569706940
 H384   H  0.354740283185  -0.048899394491  0.469170576245
 O385   O  0.470449485840  0.014569579486  0.061352134348
 O386   O  0.453217445137  0.409097351492  0.438647865652
 O387   O  0.029550514160  0.090902648508  -0.455879906354
 O388   O  0.046782554863  0.485430420514  -0.044120093646
 O389   O  0.061352134348  0.470449485840  0.014569579486
 O390   O  0.014569579486  0.061352134348  0.470449485840
 O391   O  -0.044120093646  0.046782554863  0.485430420514
 O392   O  0.409097351492  0.438647865652  0.453217445137
 O393   O  0.438647865652  0.453217445137  0.409097351492
 O394   O  0.090902648508  -0.455879906354  0.029550514160
 O395   O  -0.455879906354  0.029550514160  0.090902648508
 O396   O  0.485430420514  -0.044120093646  0.046782554863
 O397   O  -0.485430420514  -0.029550514160  -0.438647865652
 O398   O  -0.090902648508  -0.046782554863  -0.061352134348
 O399   O  -0.409097351492  -0.470449485840  0.044120093646
 O400   O  -0.014569579486  -0.453217445137  0.455879906354
 O401   O  -0.029550514160  -0.438647865652  -0.485430420514
 O402   O  -0.438647865652  -0.485430420514  -0.029550514160
 O403   O  -0.453217445137  0.455879906354  -0.014569579486
 O404   O  -0.061352134348  -0.090902648508  -0.046782554863
 O405   O  -0.046782554863  -0.061352134348  -0.090902648508
 O406   O  0.044120093646  -0.409097351492  -0.470449485840
 O407   O  -0.470449485840  0.044120093646  -0.409097351492
 O408   O  0.455879906354  -0.014569579486  -0.453217445137
 H409   H  0.167479273102  -0.159395937999  -0.090182772210
 H410   H  0.430786834211  0.257662045312  -0.409817227790
 H411   H  0.332520726898  0.242337954688  -0.326875211101
 H412   H  0.069213165789  -0.340604062001  -0.173124788899
 H413   H  -0.090182772210  0.167479273102  -0.159395937999
 H414   H  -0.159395937999  -0.090182772210  0.167479273102
 H415   H  -0.173124788899  0.069213165789  -0.340604062001
 H416   H  0.257662045312  -0.409817227790  0.430786834211
 H417   H  -0.409817227790  0.430786834211  0.257662045312
 H418   H  0.242337954688  -0.326875211101  0.332520726898
 H419   H  -0.326875211101  0.332520726898  0.242337954688
 H420   H  -0.340604062001  -0.173124788899  0.069213165789
 H421   H  0.340604062001  -0.332520726898  0.409817227790
 H422   H  -0.242337954688  -0.069213165789  0.090182772210
 H423   H  -0.257662045312  -0.167479273102  0.173124788899
 H424   H  0.159395937999  -0.430786834211  0.326875211101
 H425   H  -0.332520726898  0.409817227790  0.340604062001
 H426   H  0.409817227790  0.340604062001  -0.332520726898
 H427   H  -0.430786834211  0.326875211101  0.159395937999
 H428   H  0.090182772210  -0.242337954688  -0.069213165789
 H429   H  -0.069213165789  0.090182772210  -0.242337954688
 H430   H  0.173124788899  -0.257662045312  -0.167479273102
 H431   H  -0.167479273102  0.173124788899  -0.257662045312
 H432   H  0.326875211101  0.159395937999  -0.430786834211
 H433   H  0.328623328302  -0.167038510371  -0.064841687625
 H434   H  0.397803177253  0.393465015927  -0.435158312375
 H435   H  0.171376671698  0.106534984073  -0.495661838674
 H436   H  0.102196822747  -0.332961489629  -0.004338161326
 H437   H  -0.064841687625  0.328623328302  -0.167038510371
 H438   H  -0.167038510371  -0.064841687625  0.328623328302
 H439   H  -0.004338161326  0.102196822747  -0.332961489629
 H440   H  0.393465015927  -0.435158312375  0.397803177253
 H441   H  -0.435158312375  0.397803177253  0.393465015927
 H442   H  0.106534984073  -0.495661838674  0.171376671698
 H443   H  -0.495661838674  0.171376671698  0.106534984073
 H444   H  -0.332961489629  -0.004338161326  0.102196822747
 H445   H  0.332961489629  -0.171376671698  0.435158312375
 H446   H  -0.106534984073  -0.102196822747  0.064841687625
 H447   H  -0.393465015927  -0.328623328302  0.004338161326
 H448   H  0.167038510371  -0.397803177253  0.495661838674
 H449   H  -0.171376671698  0.435158312375  0.332961489629
 H450   H  0.435158312375  0.332961489629  -0.171376671698
 H451   H  -0.397803177253  0.495661838674  0.167038510371
 H452   H  0.064841687625  -0.106534984073  -0.102196822747
 H453   H  -0.102196822747  0.064841687625  -0.106534984073
 H454   H  0.004338161326  -0.393465015927  -0.328623328302
 H455   H  -0.328623328302  0.004338161326  -0.393465015927
 H456   H  0.495661838674  0.167038510371  -0.397803177253
 C457   C  0.359948831246  -0.020296598392  -0.037894361947
 C458   C  -0.482402236446  0.397843193192  -0.462105638054
 C459   C  0.140051168754  0.102156806808  -0.380245429638
 C460   C  -0.017597763554  -0.479703401608  -0.119754570362
 C461   C  -0.037894361947  0.359948831246  -0.020296598392
 C462   C  -0.020296598392  -0.037894361947  0.359948831246
 C463   C  -0.119754570362  -0.017597763554  -0.479703401608
 C464   C  0.397843193192  -0.462105638054  -0.482402236446
 C465   C  -0.462105638054  -0.482402236446  0.397843193192
 C466   C  0.102156806808  -0.380245429638  0.140051168754
 C467   C  -0.380245429638  0.140051168754  0.102156806808
 C468   C  -0.479703401608  -0.119754570362  -0.017597763554
 C469   C  0.479703401608  -0.140051168754  0.462105638054
 C470   C  -0.102156806808  0.017597763554  0.037894361947
 C471   C  -0.397843193192  -0.359948831246  0.119754570362
 C472   C  0.020296598392  0.482402236446  0.380245429638
 C473   C  -0.140051168754  0.462105638054  0.479703401608
 C474   C  0.462105638054  0.479703401608  -0.140051168754
 C475   C  0.482402236446  0.380245429638  0.020296598392
 C476   C  0.037894361947  -0.102156806808  0.017597763554
 C477   C  0.017597763554  0.037894361947  -0.102156806808
 C478   C  0.119754570362  -0.397843193192  -0.359948831246
 C479   C  -0.359948831246  0.119754570362  -0.397843193192
 C480   C  0.380245429638  0.020296598392  0.482402236446
 H481   H  0.193014044486  -0.265150523493  -0.099805635674
 H482   H  0.334655112181  0.292819680160  -0.400194364326
 H483   H  0.306985955514  0.207180319840  -0.458164567979
 H484   H  0.165344887819  -0.234849476507  -0.041835432021
 H485   H  -0.099805635674  0.193014044486  -0.265150523493
 H486   H  -0.265150523493  -0.099805635674  0.193014044486
 H487   H  -0.041835432021  0.165344887819  -0.234849476507
 H488   H  0.292819680160  -0.400194364326  0.334655112181
 H489   H  -0.400194364326  0.334655112181  0.292819680160
 H490   H  0.207180319840  -0.458164567979  0.306985955514
 H491   H  -0.458164567979  0.306985955514  0.207180319840
 H492   H  -0.234849476507  -0.041835432021  0.165344887819
 H493   H  0.234849476507  -0.306985955514  0.400194364326
 H494   H  -0.207180319840  -0.165344887819  0.099805635674
 H495   H  -0.292819680160  -0.193014044486  0.041835432021
 H496   H  0.265150523493  -0.334655112181  0.458164567979
 H497   H  -0.306985955514  0.400194364326  0.234849476507
 H498   H  0.400194364326  0.234849476507  -0.306985955514
 H499   H  -0.334655112181  0.458164567979  0.265150523493
 H500   H  0.099805635674  -0.207180319840  -0.165344887819
 H501   H  -0.165344887819  0.099805635674  -0.207180319840
 H502   H  0.041835432021  -0.292819680160  -0.193014044486
 H503   H  -0.193014044486  0.041835432021  -0.292819680160
 H504   H  0.458164567979  0.265150523493  -0.334655112181
 H505   H  0.272804653100  -0.212795822181  -0.058246333258
 H506   H  0.345450511077  0.331050986359  -0.441753666742
 H507   H  0.227195346900  0.168949013641  -0.485600475282
 H508   H  0.154549488923  -0.287204177819  -0.014399524718
 H509   H  -0.058246333258  0.272804653100  -0.212795822181
 H510   H  -0.212795822181  -0.058246333258  0.272804653100
 H511   H  -0.014399524718  0.154549488923  -0.287204177819
 H512   H  0.331050986359  -0.441753666742  0.345450511077
 H513   H  -0.441753666742  0.345450511077  0.331050986359
 H514   H  0.168949013641  -0.485600475282  0.227195346900
 H515   H  -0.485600475282  0.227195346900  0.168949013641
 H516   H  -0.287204177819  -0.014399524718  0.154549488923
 H517   H  0.287204177819  -0.227195346900  0.441753666742
 H518   H  -0.168949013641  -0.154549488923  0.058246333258
 H519   H  -0.331050986359  -0.272804653100  0.014399524718
 H520   H  0.212795822181  -0.345450511077  0.485600475282
 H521   H  -0.227195346900  0.441753666742  0.287204177819
 H522   H  0.441753666742  0.287204177819  -0.227195346900
 H523   H  -0.345450511077  0.485600475282  0.212795822181
 H524   H  0.058246333258  -0.168949013641  -0.154549488923
 H525   H  -0.154549488923  0.058246333258  -0.168949013641
 H526   H  0.014399524718  -0.331050986359  -0.272804653100
 H527   H  -0.272804653100  0.014399524718  -0.331050986359
 H528   H  0.485600475282  0.212795822181  -0.345450511077
 H529   H  0.408651180579  -0.114761540055  -0.023551785372
 H530   H  0.408790245317  0.432202965951  -0.476448214628
 H531   H  0.091348819421  0.067797034049  0.476587279366
 H532   H  0.091209754683  -0.385238459945  0.023412720634
 H533   H  -0.023551785372  0.408651180579  -0.114761540055
 H534   H  -0.114761540055  -0.023551785372  0.408651180579
 H535   H  0.023412720634  0.091209754683  -0.385238459945
 H536   H  0.432202965951  -0.476448214628  0.408790245317
 H537   H  -0.476448214628  0.408790245317  0.432202965951
 H538   H  0.067797034049  0.476587279366  0.091348819421
 H539   H  0.476587279366  0.091348819421  0.067797034049
 H540   H  -0.385238459945  0.023412720634  0.091209754683
 H541   H  0.385238459945  -0.091348819421  0.476448214628
 H542   H  -0.067797034049  -0.091209754683  0.023551785372
 H543   H  -0.432202965951  -0.408651180579  -0.023412720634
 H544   H  0.114761540055  -0.408790245317  -0.476587279366
 H545   H  -0.091348819421  0.476448214628  0.385238459945
 H546   H  0.476448214628  0.385238459945  -0.091348819421
 H547   H  -0.408790245317  -0.476587279366  0.114761540055
 H548   H  0.023551785372  -0.067797034049  -0.091209754683
 H549   H  -0.091209754683  0.023551785372  -0.067797034049
 H550   H  -0.023412720634  -0.432202965951  -0.408651180579
 H551   H  -0.408651180579  -0.023412720634  -0.432202965951
 H552   H  -0.476587279366  0.114761540055  -0.408790245317
 H553   H  0.247296089499  -0.107500756019  -0.050741134386
 H554   H  0.443240378368  0.298037223885  -0.449258865613
 H555   H  0.252703910501  0.201962776115  -0.354796845518
 H556   H  0.056759621632  -0.392499243981  -0.145203154483
 H557   H  -0.050741134386  0.247296089499  -0.107500756019
 H558   H  -0.107500756019  -0.050741134386  0.247296089499
 H559   H  -0.145203154483  0.056759621632  -0.392499243981
 H560   H  0.298037223885  -0.449258865613  0.443240378368
 H561   H  -0.449258865613  0.443240378368  0.298037223885
 H562   H  0.201962776115  -0.354796845518  0.252703910501
 H563   H  -0.354796845518  0.252703910501  0.201962776115
 H564   H  -0.392499243981  -0.145203154483  0.056759621632
 H565   H  0.392499243981  -0.252703910501  0.449258865613
 H566   H  -0.201962776115  -0.056759621632  0.050741134386
 H567   H  -0.298037223885  -0.247296089499  0.145203154483
 H568   H  0.107500756019  -0.443240378368  0.354796845518
 H569   H  -0.252703910501  0.449258865613  0.392499243981
 H570   H  0.449258865613  0.392499243981  -0.252703910501
 H571   H  -0.443240378368  0.354796845518  0.107500756019
 H572   H  0.050741134386  -0.201962776115  -0.056759621632
 H573   H  -0.056759621632  0.050741134386  -0.201962776115
 H574   H  0.145203154483  -0.298037223885  -0.247296089499
 H575   H  -0.247296089499  0.145203154483  -0.298037223885
 H576   H  0.354796845518  0.107500756019  -0.443240378368
 C577   C  0.204874971564  -0.230549133311  -0.089735627972
 C578   C  0.359186494661  0.294610599536  -0.410264372028
 C579   C  0.295125028436  0.205389400464  -0.435424104875
 C580   C  0.140813505339  -0.269450866689  -0.064575895125
 C581   C  -0.089735627972  0.204874971564  -0.230549133311
 C582   C  -0.230549133311  -0.089735627972  0.204874971564
 C583   C  -0.064575895125  0.140813505339  -0.269450866689
 C584   C  0.294610599536  -0.410264372028  0.359186494661
 C585   C  -0.410264372028  0.359186494661  0.294610599536
 C586   C  0.205389400464  -0.435424104875  0.295125028436
 C587   C  -0.435424104875  0.295125028436  0.205389400464
 C588   C  -0.269450866689  -0.064575895125  0.140813505339
 C589   C  0.269450866689  -0.295125028436  0.410264372028
 C590   C  -0.205389400464  -0.140813505339  0.089735627972
 C591   C  -0.294610599536  -0.204874971564  0.064575895125
 C592   C  0.230549133311  -0.359186494661  0.435424104875
 C593   C  -0.295125028436  0.410264372028  0.269450866689
 C594   C  0.410264372028  0.269450866689  -0.295125028436
 C595   C  -0.359186494661  0.435424104875  0.230549133311
 C596   C  0.089735627972  -0.205389400464  -0.140813505339
 C597   C  -0.140813505339  0.089735627972  -0.205389400464
 C598   C  0.064575895125  -0.294610599536  -0.204874971564
 C599   C  -0.204874971564  0.064575895125  -0.294610599536
 C600   C  0.435424104875  0.230549133311  -0.359186494661
 C601   C  0.265743396381  -0.156273263632  -0.051466540526
 C602   C  0.395193276894  0.317209936907  -0.448533459474
 C603   C  0.234256603619  0.182790063093  -0.422016660014
 C604   C  0.104806723106  -0.343726736368  -0.077983339986
 C605   C  -0.051466540526  0.265743396381  -0.156273263632
 C606   C  -0.156273263632  -0.051466540526  0.265743396381
 C607   C  -0.077983339986  0.104806723106  -0.343726736368
 C608   C  0.317209936907  -0.448533459474  0.395193276894
 C609   C  -0.448533459474  0.395193276894  0.317209936907
 C610   C  0.182790063093  -0.422016660014  0.234256603619
 C611   C  -0.422016660014  0.234256603619  0.182790063093
 C612   C  -0.343726736368  -0.077983339986  0.104806723106
 C613   C  0.343726736368  -0.234256603619  0.448533459474
 C614   C  -0.182790063093  -0.104806723106  0.051466540526
 C615   C  -0.317209936907  -0.265743396381  0.077983339986
 C616   C  0.156273263632  -0.395193276894  0.422016660014
 C617   C  -0.234256603619  0.448533459474  0.343726736368
 C618   C  0.448533459474  0.343726736368  -0.234256603619
 C619   C  -0.395193276894  0.422016660014  0.156273263632
 C620   C  0.051466540526  -0.182790063093  -0.104806723106
 C621   C  -0.104806723106  0.051466540526  -0.182790063093
 C622   C  0.077983339986  -0.317209936907  -0.265743396381
 C623   C  -0.265743396381  0.077983339986  -0.317209936907
 C624   C  0.422016660014  0.156273263632  -0.395193276894
 C625   C  0.174241970741  -0.216320645765  -0.098942221883
 C626   C  0.382621576118  0.273184192624  -0.401057778117
 C627   C  0.325758029259  0.226815807376  -0.390562616506
 C628   C  0.117378423882  -0.283679354235  -0.109437383494
 C629   C  -0.098942221883  0.174241970741  -0.216320645765
 C630   C  -0.216320645765  -0.098942221883  0.174241970741
 C631   C  -0.109437383494  0.117378423882  -0.283679354235
 C632   C  0.273184192624  -0.401057778117  0.382621576118
 C633   C  -0.401057778117  0.382621576118  0.273184192624
 C634   C  0.226815807376  -0.390562616506  0.325758029259
 C635   C  -0.390562616506  0.325758029259  0.226815807376
 C636   C  -0.283679354235  -0.109437383494  0.117378423882
 C637   C  0.283679354235  -0.325758029259  0.401057778117
 C638   C  -0.226815807376  -0.117378423882  0.098942221883
 C639   C  -0.273184192624  -0.174241970741  0.109437383494
 C640   C  0.216320645765  -0.382621576118  0.390562616506
 C641   C  -0.325758029259  0.401057778117  0.283679354235
 C642   C  0.401057778117  0.283679354235  -0.325758029259
 C643   C  -0.382621576118  0.390562616506  0.216320645765
 C644   C  0.098942221883  -0.226815807376  -0.117378423882
 C645   C  -0.117378423882  0.098942221883  -0.226815807376
 C646   C  0.109437383494  -0.273184192624  -0.174241970741
 C647   C  -0.174241970741  0.109437383494  -0.273184192624
 C648   C  0.390562616506  0.216320645765  -0.382621576118
 C649   C  0.190338519821  -0.171612767339  -0.084216082390
 C650   C  0.412603315051  0.274554602211  -0.415783917610
 C651   C  0.309661480179  0.225445397789  -0.361951287160
 C652   C  0.087396684949  -0.328387232661  -0.138048712840
 C653   C  -0.084216082390  0.190338519821  -0.171612767339
 C654   C  -0.171612767339  -0.084216082390  0.190338519821
 C655   C  -0.138048712840  0.087396684949  -0.328387232661
 C656   C  0.274554602211  -0.415783917610  0.412603315051
 C657   C  -0.415783917610  0.412603315051  0.274554602211
 C658   C  0.225445397789  -0.361951287160  0.309661480179
 C659   C  -0.361951287160  0.309661480179  0.225445397789
 C660   C  -0.328387232661  -0.138048712840  0.087396684949
 C661   C  0.328387232661  -0.309661480179  0.415783917610
 C662   C  -0.225445397789  -0.087396684949  0.084216082390
 C663   C  -0.274554602211  -0.190338519821  0.138048712840
 C664   C  0.171612767339  -0.412603315051  0.361951287160
 C665   C  -0.309661480179  0.415783917610  0.328387232661
 C666   C  0.415783917610  0.328387232661  -0.309661480179
 C667   C  -0.412603315051  0.361951287160  0.171612767339
 C668   C  0.084216082390  -0.225445397789  -0.087396684949
 C669   C  -0.087396684949  0.084216082390  -0.225445397789
 C670   C  0.138048712840  -0.274554602211  -0.190338519821
 C671   C  -0.190338519821  0.138048712840  -0.274554602211
 C672   C  0.361951287160  0.171612767339  -0.412603315051
 C673   C  0.406130027939  -0.062773324193  0.019865151852
 C674   C  0.417361523956  0.386264876087  0.480134848148
 C675   C  0.093869972061  0.113735123913  -0.468903352132
 C676   C  0.082638476044  -0.437226675807  -0.031096647868
 C677   C  0.019865151852  0.406130027939  -0.062773324193
 C678   C  -0.062773324193  0.019865151852  0.406130027939
 C679   C  -0.031096647868  0.082638476044  -0.437226675807
 C680   C  0.386264876087  0.480134848148  0.417361523956
 C681   C  0.480134848148  0.417361523956  0.386264876087
 C682   C  0.113735123913  -0.468903352132  0.093869972061
 C683   C  -0.468903352132  0.093869972061  0.113735123913
 C684   C  -0.437226675807  -0.031096647868  0.082638476044
 C685   C  0.437226675807  -0.093869972061  -0.480134848148
 C686   C  -0.113735123913  -0.082638476044  -0.019865151852
 C687   C  -0.386264876087  -0.406130027939  0.031096647868
 C688   C  0.062773324193  -0.417361523956  0.468903352132
 C689   C  -0.093869972061  -0.480134848148  0.437226675807
 C690   C  -0.480134848148  0.437226675807  -0.093869972061
 C691   C  -0.417361523956  0.468903352132  0.062773324193
 C692   C  -0.019865151852  -0.113735123913  -0.082638476044
 C693   C  -0.082638476044  -0.019865151852  -0.113735123913
 C694   C  0.031096647868  -0.386264876087  -0.406130027939
 C695   C  -0.406130027939  0.031096647868  -0.386264876087
 C696   C  0.468903352132  0.062773324193  -0.417361523956
 C697   C  0.331127174456  -0.082157976491  0.009996197243
 C698   C  0.407845826266  0.321130977213  0.490003802757
 C699   C  0.168872825544  0.178869022787  -0.413285150947
 C700   C  0.092154173734  -0.417842023509  -0.086714849053
 C701   C  0.009996197243  0.331127174456  -0.082157976491
 C702   C  -0.082157976491  0.009996197243  0.331127174456
 C703   C  -0.086714849053  0.092154173734  -0.417842023509
 C704   C  0.321130977213  0.490003802757  0.407845826266
 C705   C  0.490003802757  0.407845826266  0.321130977213
 C706   C  0.178869022787  -0.413285150947  0.168872825544
 C707   C  -0.413285150947  0.168872825544  0.178869022787
 C708   C  -0.417842023509  -0.086714849053  0.092154173734
 C709   C  0.417842023509  -0.168872825544  -0.490003802757
 C710   C  -0.178869022787  -0.092154173734  -0.009996197243
 C711   C  -0.321130977213  -0.331127174456  0.086714849053
 C712   C  0.082157976491  -0.407845826266  0.413285150947
 C713   C  -0.168872825544  -0.490003802757  0.417842023509
 C714   C  -0.490003802757  0.417842023509  -0.168872825544
 C715   C  -0.407845826266  0.413285150947  0.082157976491
 C716   C  -0.009996197243  -0.178869022787  -0.092154173734
 C717   C  -0.092154173734  -0.009996197243  -0.178869022787
 C718   C  0.086714849053  -0.321130977213  -0.331127174456
 C719   C  -0.331127174456  0.086714849053  -0.321130977213
 C720   C  0.413285150947  0.082157976491  -0.407845826266
 C721   C  0.249667180681  -0.201200073028  -0.066479029138
 C722   C  0.365278956110  0.316146209819  -0.433520970862
 C723   C  0.250332819319  0.183853790181  -0.450867253709
 C724   C  0.134721043890  -0.298799926972  -0.049132746291
 C725   C  -0.066479029138  0.249667180681  -0.201200073028
 C726   C  -0.201200073028  -0.066479029138  0.249667180681
 C727   C  -0.049132746291  0.134721043890  -0.298799926972
 C728   C  0.316146209819  -0.433520970862  0.365278956110
 C729   C  -0.433520970862  0.365278956110  0.316146209819
 C730   C  0.183853790181  -0.450867253709  0.250332819319
 C731   C  -0.450867253709  0.250332819319  0.183853790181
 C732   C  -0.298799926972  -0.049132746291  0.134721043890
 C733   C  0.298799926972  -0.250332819319  0.433520970862
 C734   C  -0.183853790181  -0.134721043890  0.066479029138
 C735   C  -0.316146209819  -0.249667180681  0.049132746291
 C736   C  0.201200073028  -0.365278956110  0.450867253709
 C737   C  -0.250332819319  0.433520970862  0.298799926972
 C738   C  0.433520970862  0.298799926972  -0.250332819319
 C739   C  -0.365278956110  0.450867253709  0.201200073028
 C740   C  0.066479029138  -0.183853790181  -0.134721043890
 C741   C  -0.134721043890  0.066479029138  -0.183853790181
 C742   C  0.049132746291  -0.316146209819  -0.249667180681
 C743   C  -0.249667180681  0.049132746291  -0.316146209819
 C744   C  0.450867253709  0.201200073028  -0.365278956110
 C745   C  0.313146571263  -0.124844950066  -0.026376888347
 C746   C  0.401531938281  0.339523459610  -0.473623111653
 C747   C  0.186853428737  0.160476540390  -0.437991521329
 C748   C  0.098468061719  -0.375155049934  -0.062008478671
 C749   C  -0.026376888347  0.313146571263  -0.124844950066
 C750   C  -0.124844950066  -0.026376888347  0.313146571263
 C751   C  -0.062008478671  0.098468061719  -0.375155049934
 C752   C  0.339523459610  -0.473623111653  0.401531938281
 C753   C  -0.473623111653  0.401531938281  0.339523459610
 C754   C  0.160476540390  -0.437991521329  0.186853428737
 C755   C  -0.437991521329  0.186853428737  0.160476540390
 C756   C  -0.375155049934  -0.062008478671  0.098468061719
 C757   C  0.375155049934  -0.186853428737  0.473623111653
 C758   C  -0.160476540390  -0.098468061719  0.026376888347
 C759   C  -0.339523459610  -0.313146571263  0.062008478671
 C760   C  0.124844950066  -0.401531938281  0.437991521329
 C761   C  -0.186853428737  0.473623111653  0.375155049934
 C762   C  0.473623111653  0.375155049934  -0.186853428737
 C763   C  -0.401531938281  0.437991521329  0.124844950066
 C764   C  0.026376888347  -0.160476540390  -0.098468061719
 C765   C  -0.098468061719  0.026376888347  -0.160476540390
 C766   C  0.062008478671  -0.339523459610  -0.313146571263
 C767   C  -0.313146571263  0.062008478671  -0.339523459610
 C768   C  0.437991521329  0.124844950066  -0.401531938281
 C769   C  0.235212555623  -0.142171771944  -0.061197091773
 C770   C  0.419025319829  0.296409647396  -0.438802908227
 C771   C  0.264787444377  0.203590352604  -0.377384327567
 C772   C  0.080974680171  -0.357828228056  -0.122615672433
 C773   C  -0.061197091773  0.235212555623  -0.142171771944
 C774   C  -0.142171771944  -0.061197091773  0.235212555623
 C775   C  -0.122615672433  0.080974680171  -0.357828228056
 C776   C  0.296409647396  -0.438802908227  0.419025319829
 C777   C  -0.438802908227  0.419025319829  0.296409647396
 C778   C  0.203590352604  -0.377384327567  0.264787444377
 C779   C  -0.377384327567  0.264787444377  0.203590352604
 C780   C  -0.357828228056  -0.122615672433  0.080974680171
 C781   C  0.357828228056  -0.264787444377  0.438802908227
 C782   C  -0.203590352604  -0.080974680171  0.061197091773
 C783   C  -0.296409647396  -0.235212555623  0.122615672433
 C784   C  0.142171771944  -0.419025319829  0.377384327567
 C785   C  -0.264787444377  0.438802908227  0.357828228056
 C786   C  0.438802908227  0.357828228056  -0.264787444377
 C787   C  -0.419025319829  0.377384327567  0.142171771944
 C788   C  0.061197091773  -0.203590352604  -0.080974680171
 C789   C  -0.080974680171  0.061197091773  -0.203590352604
 C790   C  0.122615672433  -0.296409647396  -0.235212555623
 C791   C  -0.235212555623  0.122615672433  -0.296409647396
 C792   C  0.377384327567  0.142171771944  -0.419025319829
 C793   C  0.387537687403  -0.104814949867  -0.013699862438
 C794   C  0.408884912570  0.401237549840  -0.486300137562
 C795   C  0.112462312597  0.098762450160  -0.492352637270
 C796   C  0.091115087430  -0.395185050133  -0.007647362730
 C797   C  -0.013699862438  0.387537687403  -0.104814949867
 C798   C  -0.104814949867  -0.013699862438  0.387537687403
 C799   C  -0.007647362730  0.091115087430  -0.395185050133
 C800   C  0.401237549840  -0.486300137562  0.408884912570
 C801   C  -0.486300137562  0.408884912570  0.401237549840
 C802   C  0.098762450160  -0.492352637270  0.112462312597
 C803   C  -0.492352637270  0.112462312597  0.098762450160
 C804   C  -0.395185050133  -0.007647362730  0.091115087430
 C805   C  0.395185050133  -0.112462312597  0.486300137562
 C806   C  -0.098762450160  -0.091115087430  0.013699862438
 C807   C  -0.401237549840  -0.387537687403  0.007647362730
 C808   C  0.104814949867  -0.408884912570  0.492352637270
 C809   C  -0.112462312597  0.486300137562  0.395185050133
 C810   C  0.486300137562  0.395185050133  -0.112462312597
 C811   C  -0.408884912570  0.492352637270  0.104814949867
 C812   C  0.013699862438  -0.098762450160  -0.091115087430
 C813   C  -0.091115087430  0.013699862438  -0.098762450160
 C814   C  0.007647362730  -0.401237549840  -0.387537687403
 C815   C  -0.387537687403  0.007647362730  -0.401237549840
 C816   C  0.492352637270  0.104814949867  -0.408884912570
 C817   C  0.377504662203  -0.050925804273  0.032341935897
 C818   C  0.416732259830  0.345162726305  0.467658064103
 C819   C  0.122495337797  0.154837273695  -0.428430466476
 C820   C  0.083267740170  -0.449074195727  -0.071569533524
 C821   C  0.032341935897  0.377504662203  -0.050925804273
 C822   C  -0.050925804273  0.032341935897  0.377504662203
 C823   C  -0.071569533524  0.083267740170  -0.449074195727
 C824   C  0.345162726305  0.467658064103  0.416732259830
 C825   C  0.467658064103  0.416732259830  0.345162726305
 C826   C  0.154837273695  -0.428430466476  0.122495337797
 C827   C  -0.428430466476  0.122495337797  0.154837273695
 C828   C  -0.449074195727  -0.071569533524  0.083267740170
 C829   C  0.449074195727  -0.122495337797  -0.467658064103
 C830   C  -0.154837273695  -0.083267740170  -0.032341935897
 C831   C  -0.345162726305  -0.377504662203  0.071569533524
 C832   C  0.050925804273  -0.416732259830  0.428430466476
 C833   C  -0.122495337797  -0.467658064103  0.449074195727
 C834   C  -0.467658064103  0.449074195727  -0.122495337797
 C835   C  -0.416732259830  0.428430466476  0.050925804273
 C836   C  -0.032341935897  -0.154837273695  -0.083267740170
 C837   C  -0.083267740170  -0.032341935897  -0.154837273695
 C838   C  0.071569533524  -0.345162726305  -0.377504662203
 C839   C  -0.377504662203  0.071569533524  -0.345162726305
 C840   C  0.428430466476  0.050925804273  -0.416732259830
 B841   B  0.455334792149  -0.029928290542  0.042827508251
 B842   B  0.427244201208  0.412507283898  0.457172491749
 B843   B  0.044665207851  0.087492716102  -0.485263082691
 B844   B  0.072755798792  -0.470071709458  -0.014736917310
 B845   B  0.042827508251  0.455334792149  -0.029928290542
 B846   B  -0.029928290542  0.042827508251  0.455334792149
 B847   B  -0.014736917310  0.072755798792  -0.470071709458
 B848   B  0.412507283898  0.457172491749  0.427244201208
 B849   B  0.457172491749  0.427244201208  0.412507283898
 B850   B  0.087492716102  -0.485263082691  0.044665207851
 B851   B  -0.485263082691  0.044665207851  0.087492716102
 B852   B  -0.470071709458  -0.014736917310  0.072755798792
 B853   B  0.470071709458  -0.044665207851  -0.457172491749
 B854   B  -0.087492716102  -0.072755798792  -0.042827508251
 B855   B  -0.412507283898  -0.455334792149  0.014736917310
 B856   B  0.029928290542  -0.427244201208  0.485263082691
 B857   B  -0.044665207851  -0.457172491749  0.470071709458
 B858   B  -0.457172491749  0.470071709458  -0.044665207851
 B859   B  -0.427244201208  0.485263082691  0.029928290542
 B860   B  -0.042827508251  -0.087492716102  -0.072755798792
 B861   B  -0.072755798792  -0.042827508251  -0.087492716102
 B862   B  0.014736917310  -0.412507283898  -0.455334792149
 B863   B  -0.455334792149  0.014736917310  -0.412507283898
 B864   B  0.485263082691  0.029928290542  -0.427244201208
 C865   C  0.341825012084  -0.135115842297  -0.036874311767
 C866   C  0.401758469470  0.378699323851  -0.463125688233
 C867   C  0.158174987916  0.121300676149  -0.476940854381
 C868   C  0.098241530530  -0.364884157704  -0.023059145619
 C869   C  -0.036874311767  0.341825012084  -0.135115842297
 C870   C  -0.135115842297  -0.036874311767  0.341825012084
 C871   C  -0.023059145619  0.098241530530  -0.364884157704
 C872   C  0.378699323851  -0.463125688233  0.401758469470
 C873   C  -0.463125688233  0.401758469470  0.378699323851
 C874   C  0.121300676149  -0.476940854381  0.158174987916
 C875   C  -0.476940854381  0.158174987916  0.121300676149
 C876   C  -0.364884157704  -0.023059145619  0.098241530530
 C877   C  0.364884157704  -0.158174987916  0.463125688233
 C878   C  -0.121300676149  -0.098241530530  0.036874311767
 C879   C  -0.378699323851  -0.341825012084  0.023059145619
 C880   C  0.135115842297  -0.401758469470  0.476940854381
 C881   C  -0.158174987916  0.463125688233  0.364884157704
 C882   C  0.463125688233  0.364884157704  -0.158174987916
 C883   C  -0.401758469470  0.476940854381  0.135115842297
 C884   C  0.036874311767  -0.121300676149  -0.098241530530
 C885   C  -0.098241530530  0.036874311767  -0.121300676149
 C886   C  0.023059145619  -0.378699323851  -0.341825012084
 C887   C  -0.341825012084  0.023059145619  -0.378699323851
 C888   C  0.476940854381  0.135115842297  -0.401758469470
 C889   C  0.250000000000  -0.375000000000  0.375000000000
 C890   C  -0.250000000000  -0.125000000000  0.125000000000
 C891   C  0.375000000000  0.250000000000  -0.375000000000
 C892   C  -0.375000000000  0.375000000000  0.250000000000
 C893   C  0.125000000000  -0.250000000000  -0.125000000000
 C894   C  -0.125000000000  0.125000000000  -0.250000000000
