data_MSUCOF-4-NiCp_BULK_OPTGEOM_DZ_optimized.outout

_cell_length_a                         34.17254846
_cell_length_b                         34.17254846
_cell_length_c                         34.17254846
_cell_angle_alpha                      109.47122100
_cell_angle_beta                       109.47122100
_cell_angle_gamma                      109.47122100
_symmetry_space_group_name_H-M         'P 1'
_symmetry_Int_Tables_number            1

loop_
_symmetry_equiv_pos_as_xyz
   'x, y, z'

loop_
   _atom_site_label
   _atom_site_type_symbol
   _atom_site_fract_x
   _atom_site_fract_y
   _atom_site_fract_z
 H001   H  0.059779615070  0.081945307760  0.364237248031
 H002   H  0.217708059729  -0.304457632960  0.135762751969
 H003   H  0.440220384930  -0.195542367040  0.022165692690
 H004   H  0.282291940271  0.418054692240  0.477834307310
 H005   H  0.364237248031  0.059779615070  0.081945307760
 H006   H  0.081945307760  0.364237248031  0.059779615070
 H007   H  0.477834307310  0.282291940271  0.418054692240
 H008   H  -0.304457632960  0.135762751969  0.217708059729
 H009   H  0.135762751969  0.217708059729  -0.304457632960
 H010   H  -0.195542367040  0.022165692690  0.440220384930
 H011   H  0.022165692690  0.440220384930  -0.195542367040
 H012   H  0.418054692240  0.477834307310  0.282291940271
 H013   H  -0.418054692240  -0.440220384930  -0.135762751969
 H014   H  0.195542367040  -0.282291940271  -0.364237248031
 H015   H  0.304457632960  -0.059779615070  -0.477834307310
 H016   H  -0.081945307760  -0.217708059729  -0.022165692690
 H017   H  -0.440220384930  -0.135762751969  -0.418054692240
 H018   H  -0.135762751969  -0.418054692240  -0.440220384930
 H019   H  -0.217708059729  -0.022165692690  -0.081945307760
 H020   H  -0.364237248031  0.195542367040  -0.282291940271
 H021   H  -0.282291940271  -0.364237248031  0.195542367040
 H022   H  -0.477834307310  0.304457632960  -0.059779615070
 H023   H  -0.059779615070  -0.477834307310  0.304457632960
 H024   H  -0.022165692690  -0.081945307760  -0.217708059729
 H025   H  -0.037823202364  -0.071708105363  0.300565366337
 H026   H  0.127726528300  -0.338388568701  0.199434633663
 H027   H  -0.462176797636  -0.161611431299  -0.033884902999
 H028   H  0.372273471700  -0.428291894637  -0.466115097001
 H029   H  0.300565366337  -0.037823202364  -0.071708105363
 H030   H  -0.071708105363  0.300565366337  -0.037823202364
 H031   H  -0.466115097001  0.372273471700  -0.428291894637
 H032   H  -0.338388568701  0.199434633663  0.127726528300
 H033   H  0.199434633663  0.127726528300  -0.338388568701
 H034   H  -0.161611431299  -0.033884902999  -0.462176797636
 H035   H  -0.033884902999  -0.462176797636  -0.161611431299
 H036   H  -0.428291894637  -0.466115097001  0.372273471700
 H037   H  0.428291894637  0.462176797636  -0.199434633663
 H038   H  0.161611431299  -0.372273471700  -0.300565366337
 H039   H  0.338388568701  0.037823202364  0.466115097001
 H040   H  0.071708105363  -0.127726528300  0.033884902999
 H041   H  0.462176797636  -0.199434633663  0.428291894637
 H042   H  -0.199434633663  0.428291894637  0.462176797636
 H043   H  -0.127726528300  0.033884902999  0.071708105363
 H044   H  -0.300565366337  0.161611431299  -0.372273471700
 H045   H  -0.372273471700  -0.300565366337  0.161611431299
 H046   H  0.466115097001  0.338388568701  0.037823202364
 H047   H  0.037823202364  0.466115097001  0.338388568701
 H048   H  0.033884902999  0.071708105363  -0.127726528300
 H049   H  0.025635587790  -0.036784846731  0.393121839268
 H050   H  0.070093314001  -0.367486251478  0.106878160732
 H051   H  0.474364412210  -0.132513748522  -0.062420434521
 H052   H  0.429906685999  -0.463215153269  -0.437579565479
 H053   H  0.393121839268  0.025635587790  -0.036784846731
 H054   H  -0.036784846731  0.393121839268  0.025635587790
 H055   H  -0.437579565479  0.429906685999  -0.463215153269
 H056   H  -0.367486251478  0.106878160732  0.070093314001
 H057   H  0.106878160732  0.070093314001  -0.367486251478
 H058   H  -0.132513748522  -0.062420434521  0.474364412210
 H059   H  -0.062420434521  0.474364412210  -0.132513748522
 H060   H  -0.463215153269  -0.437579565479  0.429906685999
 H061   H  0.463215153269  -0.474364412210  -0.106878160732
 H062   H  0.132513748522  -0.429906685999  -0.393121839268
 H063   H  0.367486251478  -0.025635587790  0.437579565479
 H064   H  0.036784846731  -0.070093314001  0.062420434521
 H065   H  -0.474364412210  -0.106878160732  0.463215153269
 H066   H  -0.106878160732  0.463215153269  -0.474364412210
 H067   H  -0.070093314001  0.062420434521  0.036784846731
 H068   H  -0.393121839268  0.132513748522  -0.429906685999
 H069   H  -0.429906685999  -0.393121839268  0.132513748522
 H070   H  0.437579565479  0.367486251478  -0.025635587790
 H071   H  -0.025635587790  0.437579565479  0.367486251478
 H072   H  0.062420434521  0.036784846731  -0.070093314001
 H073   H  -0.019414682608  0.003732517335  0.285099583840
 H074   H  0.218632933494  -0.304514266448  0.214900416160
 H075   H  -0.480585317392  -0.195485733552  0.023147199943
 H076   H  0.281367066506  0.496267482665  0.476852800057
 H077   H  0.285099583840  -0.019414682608  0.003732517335
 H078   H  0.003732517335  0.285099583840  -0.019414682608
 H079   H  0.476852800057  0.281367066506  0.496267482665
 H080   H  -0.304514266448  0.214900416160  0.218632933494
 H081   H  0.214900416160  0.218632933494  -0.304514266448
 H082   H  -0.195485733552  0.023147199943  -0.480585317392
 H083   H  0.023147199943  -0.480585317392  -0.195485733552
 H084   H  0.496267482665  0.476852800057  0.281367066506
 H085   H  -0.496267482665  0.480585317392  -0.214900416160
 H086   H  0.195485733552  -0.281367066506  -0.285099583840
 H087   H  0.304514266448  0.019414682608  -0.476852800057
 H088   H  -0.003732517335  -0.218632933494  -0.023147199943
 H089   H  0.480585317392  -0.214900416160  -0.496267482665
 H090   H  -0.214900416160  -0.496267482665  0.480585317392
 H091   H  -0.218632933494  -0.023147199943  -0.003732517335
 H092   H  -0.285099583840  0.195485733552  -0.281367066506
 H093   H  -0.281367066506  -0.285099583840  0.195485733552
 H094   H  -0.476852800057  0.304514266448  0.019414682608
 H095   H  0.019414682608  -0.476852800057  0.304514266448
 H096   H  -0.023147199943  -0.003732517335  -0.218632933494
 C097   C  0.043763404479  0.046285919276  0.359464054724
 C098   C  0.186821864551  -0.315700650246  0.140535945276
 C099   C  0.456236595521  -0.184299349754  0.002522514797
 C100   C  0.313178135448  0.453714080724  0.497477485203
 C101   C  0.359464054724  0.043763404479  0.046285919276
 C102   C  0.046285919276  0.359464054724  0.043763404479
 C103   C  0.497477485203  0.313178135448  0.453714080724
 C104   C  -0.315700650246  0.140535945276  0.186821864551
 C105   C  0.140535945276  0.186821864551  -0.315700650246
 C106   C  -0.184299349754  0.002522514797  0.456236595521
 C107   C  0.002522514797  0.456236595521  -0.184299349754
 C108   C  0.453714080724  0.497477485203  0.313178135448
 C109   C  -0.453714080724  -0.456236595521  -0.140535945276
 C110   C  0.184299349754  -0.313178135448  -0.359464054724
 C111   C  0.315700650246  -0.043763404479  -0.497477485203
 C112   C  -0.046285919276  -0.186821864551  -0.002522514797
 C113   C  -0.456236595521  -0.140535945276  -0.453714080724
 C114   C  -0.140535945276  -0.453714080724  -0.456236595521
 C115   C  -0.186821864551  -0.002522514797  -0.046285919276
 C116   C  -0.359464054724  0.184299349754  -0.313178135448
 C117   C  -0.313178135448  -0.359464054724  0.184299349754
 C118   C  -0.497477485203  0.315700650246  -0.043763404479
 C119   C  -0.043763404479  -0.497477485203  0.315700650246
 C120   C  -0.002522514797  -0.046285919276  -0.186821864551
 C121   C  0.056990412750  0.033419398170  0.394751204888
 C122   C  0.138668193282  -0.337760792138  0.105248795112
 C123   C  0.443009587250  -0.162239207862  -0.023571014579
 C124   C  0.361331806718  0.466580601830  -0.476428985421
 C125   C  0.394751204888  0.056990412750  0.033419398170
 C126   C  0.033419398170  0.394751204888  0.056990412750
 C127   C  -0.476428985421  0.361331806718  0.466580601830
 C128   C  -0.337760792138  0.105248795112  0.138668193282
 C129   C  0.105248795112  0.138668193282  -0.337760792138
 C130   C  -0.162239207862  -0.023571014579  0.443009587250
 C131   C  -0.023571014579  0.443009587250  -0.162239207862
 C132   C  0.466580601830  -0.476428985421  0.361331806718
 C133   C  -0.466580601830  -0.443009587250  -0.105248795112
 C134   C  0.162239207862  -0.361331806718  -0.394751204888
 C135   C  0.337760792138  -0.056990412750  0.476428985421
 C136   C  -0.033419398170  -0.138668193282  0.023571014579
 C137   C  -0.443009587250  -0.105248795112  -0.466580601830
 C138   C  -0.105248795112  -0.466580601830  -0.443009587250
 C139   C  -0.138668193282  0.023571014579  -0.033419398170
 C140   C  -0.394751204888  0.162239207862  -0.361331806718
 C141   C  -0.361331806718  -0.394751204888  0.162239207862
 C142   C  0.476428985421  0.337760792138  -0.056990412750
 C143   C  -0.056990412750  0.476428985421  0.337760792138
 C144   C  0.023571014579  -0.033419398170  -0.138668193282
 C145   C  0.000989176810  0.005040654167  0.318083466029
 C146   C  0.186957188138  -0.317094289219  0.181916533972
 C147   C  0.499010823190  -0.182905710781  0.004051477357
 C148   C  0.313042811862  0.494959345833  0.495948522643
 C149   C  0.318083466029  0.000989176810  0.005040654167
 C150   C  0.005040654167  0.318083466029  0.000989176810
 C151   C  0.495948522643  0.313042811862  0.494959345833
 C152   C  -0.317094289219  0.181916533972  0.186957188138
 C153   C  0.181916533972  0.186957188138  -0.317094289219
 C154   C  -0.182905710781  0.004051477357  0.499010823190
 C155   C  0.004051477357  0.499010823190  -0.182905710781
 C156   C  0.494959345833  0.495948522643  0.313042811862
 C157   C  -0.494959345833  -0.499010823190  -0.181916533972
 C158   C  0.182905710781  -0.313042811862  -0.318083466029
 C159   C  0.317094289219  -0.000989176810  -0.495948522643
 C160   C  -0.005040654167  -0.186957188138  -0.004051477357
 C161   C  -0.499010823190  -0.181916533972  -0.494959345833
 C162   C  -0.181916533972  -0.494959345833  -0.499010823190
 C163   C  -0.186957188138  -0.004051477357  -0.005040654167
 C164   C  -0.318083466029  0.182905710781  -0.313042811862
 C165   C  -0.313042811862  -0.318083466029  0.182905710781
 C166   C  -0.495948522643  0.317094289219  -0.000989176810
 C167   C  -0.000989176810  -0.495948522643  0.317094289219
 C168   C  -0.004051477357  -0.005040654167  -0.186957188138
Ni169  Ni  -0.013954269030  0.017195281269  0.372885791746
Ni170  Ni  0.144309489524  -0.386840060775  0.127114208255
Ni171  Ni  -0.486045730970  -0.113159939225  0.031149550299
Ni172  Ni  0.355690510476  0.482804718731  0.468850449701
Ni173  Ni  0.372885791746  -0.013954269030  0.017195281269
Ni174  Ni  0.017195281269  0.372885791746  -0.013954269030
Ni175  Ni  0.468850449701  0.355690510476  0.482804718731
Ni176  Ni  -0.386840060775  0.127114208255  0.144309489524
Ni177  Ni  0.127114208255  0.144309489524  -0.386840060775
Ni178  Ni  -0.113159939225  0.031149550299  -0.486045730970
Ni179  Ni  0.031149550299  -0.486045730970  -0.113159939225
Ni180  Ni  0.482804718731  0.468850449701  0.355690510476
Ni181  Ni  -0.482804718731  0.486045730970  -0.127114208255
Ni182  Ni  0.113159939225  -0.355690510476  -0.372885791746
Ni183  Ni  0.386840060775  0.013954269030  -0.468850449701
Ni184  Ni  -0.017195281269  -0.144309489524  -0.031149550299
Ni185  Ni  0.486045730970  -0.127114208255  -0.482804718731
Ni186  Ni  -0.127114208255  -0.482804718731  0.486045730970
Ni187  Ni  -0.144309489524  -0.031149550299  -0.017195281269
Ni188  Ni  -0.372885791746  0.113159939225  -0.355690510476
Ni189  Ni  -0.355690510476  -0.372885791746  0.113159939225
Ni190  Ni  -0.468850449701  0.386840060775  0.013954269030
Ni191  Ni  0.013954269030  -0.468850449701  0.386840060775
Ni192  Ni  -0.031149550299  -0.017195281269  -0.144309489524
 H193   H  0.007335680711  0.042399497673  0.462599640493
 H194   H  0.079799857180  -0.455263959782  0.037400359507
 H195   H  0.492664319289  -0.044736040218  0.035063816962
 H196   H  0.420200142820  0.457600502327  0.464936183038
 H197   H  0.462599640493  0.007335680711  0.042399497673
 H198   H  0.042399497673  0.462599640493  0.007335680711
 H199   H  0.464936183038  0.420200142820  0.457600502327
 H200   H  -0.455263959782  0.037400359507  0.079799857180
 H201   H  0.037400359507  0.079799857180  -0.455263959782
 H202   H  -0.044736040218  0.035063816962  0.492664319289
 H203   H  0.035063816962  0.492664319289  -0.044736040218
 H204   H  0.457600502327  0.464936183038  0.420200142820
 H205   H  -0.457600502327  -0.492664319289  -0.037400359507
 H206   H  0.044736040218  -0.420200142820  -0.462599640493
 H207   H  0.455263959782  -0.007335680711  -0.464936183038
 H208   H  -0.042399497673  -0.079799857180  -0.035063816962
 H209   H  -0.492664319289  -0.037400359507  -0.457600502327
 H210   H  -0.037400359507  -0.457600502327  -0.492664319289
 H211   H  -0.079799857180  -0.035063816962  -0.042399497673
 H212   H  -0.462599640493  0.044736040218  -0.420200142820
 H213   H  -0.420200142820  -0.462599640493  0.044736040218
 H214   H  -0.464936183038  0.455263959782  -0.007335680711
 H215   H  -0.007335680711  -0.464936183038  0.455263959782
 H216   H  -0.035063816962  -0.042399497673  -0.079799857180
 C217   C  -0.008556751434  -0.035214450437  0.325818401998
 C218   C  0.138967147564  -0.334375153433  0.174181598002
 C219   C  -0.491443248565  -0.165624846567  -0.026657699003
 C220   C  0.361032852436  -0.464785549563  -0.473342300997
 C221   C  0.325818401998  -0.008556751434  -0.035214450437
 C222   C  -0.035214450437  0.325818401998  -0.008556751434
 C223   C  -0.473342300997  0.361032852436  -0.464785549563
 C224   C  -0.334375153433  0.174181598002  0.138967147564
 C225   C  0.174181598002  0.138967147564  -0.334375153433
 C226   C  -0.165624846567  -0.026657699003  -0.491443248565
 C227   C  -0.026657699003  -0.491443248565  -0.165624846567
 C228   C  -0.464785549563  -0.473342300997  0.361032852436
 C229   C  0.464785549563  0.491443248565  -0.174181598002
 C230   C  0.165624846567  -0.361032852436  -0.325818401998
 C231   C  0.334375153433  0.008556751434  0.473342300997
 C232   C  0.035214450437  -0.138967147564  0.026657699003
 C233   C  0.491443248565  -0.174181598002  0.464785549563
 C234   C  -0.174181598002  0.464785549563  0.491443248565
 C235   C  -0.138967147564  0.026657699003  0.035214450437
 C236   C  -0.325818401998  0.165624846567  -0.361032852436
 C237   C  -0.361032852436  -0.325818401998  0.165624846567
 C238   C  0.473342300997  0.334375153433  0.008556751434
 C239   C  0.008556751434  0.473342300997  0.334375153433
 C240   C  0.026657699003  0.035214450437  -0.138967147564
 H241   H  -0.010685821398  0.094172059668  0.422592182430
 H242   H  0.171579877238  -0.433278003828  0.077407817570
 H243   H  -0.489314178602  -0.066721996172  0.104857881067
 H244   H  0.328420122762  0.405827940332  0.395142118933
 H245   H  0.422592182430  -0.010685821398  0.094172059668
 H246   H  0.094172059668  0.422592182430  -0.010685821398
 H247   H  0.395142118933  0.328420122762  0.405827940332
 H248   H  -0.433278003828  0.077407817570  0.171579877238
 H249   H  0.077407817570  0.171579877238  -0.433278003828
 H250   H  -0.066721996172  0.104857881067  -0.489314178602
 H251   H  0.104857881067  -0.489314178602  -0.066721996172
 H252   H  0.405827940332  0.395142118933  0.328420122762
 H253   H  -0.405827940332  0.489314178602  -0.077407817570
 H254   H  0.066721996172  -0.328420122762  -0.422592182430
 H255   H  0.433278003828  0.010685821398  -0.395142118933
 H256   H  -0.094172059668  -0.171579877238  -0.104857881067
 H257   H  0.489314178602  -0.077407817570  -0.405827940332
 H258   H  -0.077407817570  -0.405827940332  0.489314178602
 H259   H  -0.171579877238  -0.104857881067  -0.094172059668
 H260   H  -0.422592182430  0.066721996172  -0.328420122762
 H261   H  -0.328420122762  -0.422592182430  0.066721996172
 H262   H  -0.395142118933  0.433278003828  0.010685821398
 H263   H  0.010685821398  -0.395142118933  0.433278003828
 H264   H  -0.104857881067  -0.094172059668  -0.171579877238
 C265   C  -0.073602490942  0.022490103211  0.360793994650
 C266   C  0.161696108561  -0.434396485592  0.139206005350
 C267   C  -0.426397509058  -0.065603514408  0.096092594153
 C268   C  0.338303891439  0.477509896788  0.403907405847
 C269   C  0.360793994650  -0.073602490942  0.022490103211
 C270   C  0.022490103211  0.360793994650  -0.073602490942
 C271   C  0.403907405847  0.338303891439  0.477509896788
 C272   C  -0.434396485592  0.139206005350  0.161696108561
 C273   C  0.139206005350  0.161696108561  -0.434396485592
 C274   C  -0.065603514408  0.096092594153  -0.426397509058
 C275   C  0.096092594153  -0.426397509058  -0.065603514408
 C276   C  0.477509896788  0.403907405847  0.338303891439
 C277   C  -0.477509896788  0.426397509058  -0.139206005350
 C278   C  0.065603514408  -0.338303891439  -0.360793994650
 C279   C  0.434396485592  0.073602490942  -0.403907405847
 C280   C  -0.022490103211  -0.161696108561  -0.096092594153
 C281   C  0.426397509058  -0.139206005350  -0.477509896788
 C282   C  -0.139206005350  -0.477509896788  0.426397509058
 C283   C  -0.161696108561  -0.096092594153  -0.022490103211
 C284   C  -0.360793994650  0.065603514408  -0.338303891439
 C285   C  -0.338303891439  -0.360793994650  0.065603514408
 C286   C  -0.403907405847  0.434396485592  0.073602490942
 C287   C  0.073602490942  -0.403907405847  0.434396485592
 C288   C  -0.096092594153  -0.022490103211  -0.161696108561
 C289   C  -0.023883350267  0.027735214953  0.428380361356
 C290   C  0.099354853597  -0.452263711623  0.071619638644
 C291   C  -0.476116649733  -0.047736288377  0.051618565220
 C292   C  0.400645146403  0.472264785047  0.448381434780
 C293   C  0.428380361356  -0.023883350267  0.027735214953
 C294   C  0.027735214953  0.428380361356  -0.023883350267
 C295   C  0.448381434780  0.400645146403  0.472264785047
 C296   C  -0.452263711623  0.071619638644  0.099354853597
 C297   C  0.071619638644  0.099354853597  -0.452263711623
 C298   C  -0.047736288377  0.051618565220  -0.476116649733
 C299   C  0.051618565220  -0.476116649733  -0.047736288377
 C300   C  0.472264785047  0.448381434780  0.400645146403
 C301   C  -0.472264785047  0.476116649733  -0.071619638644
 C302   C  0.047736288377  -0.400645146403  -0.428380361356
 C303   C  0.452263711623  0.023883350267  -0.448381434780
 C304   C  -0.027735214953  -0.099354853597  -0.051618565220
 C305   C  0.476116649733  -0.071619638644  -0.472264785047
 C306   C  -0.071619638644  -0.472264785047  0.476116649733
 C307   C  -0.099354853597  -0.051618565220  -0.027735214953
 C308   C  -0.428380361356  0.047736288377  -0.400645146403
 C309   C  -0.400645146403  -0.428380361356  0.047736288377
 C310   C  -0.448381434780  0.452263711623  0.023883350267
 C311   C  0.023883350267  -0.448381434780  0.452263711623
 C312   C  -0.051618565220  -0.027735214953  -0.099354853597
 C313   C  -0.033158304599  0.056012673229  0.407695179752
 C314   C  0.148317493477  -0.440853484351  0.092304820248
 C315   C  -0.466841695401  -0.059146515649  0.089170977828
 C316   C  0.351682506523  0.443987326771  0.410829022172
 C317   C  0.407695179752  -0.033158304599  0.056012673229
 C318   C  0.056012673229  0.407695179752  -0.033158304599
 C319   C  0.410829022172  0.351682506523  0.443987326771
 C320   C  -0.440853484351  0.092304820248  0.148317493477
 C321   C  0.092304820248  0.148317493477  -0.440853484351
 C322   C  -0.059146515649  0.089170977828  -0.466841695401
 C323   C  0.089170977828  -0.466841695401  -0.059146515649
 C324   C  0.443987326771  0.410829022172  0.351682506523
 C325   C  -0.443987326771  0.466841695401  -0.092304820248
 C326   C  0.059146515649  -0.351682506523  -0.407695179752
 C327   C  0.440853484351  0.033158304599  -0.410829022172
 C328   C  -0.056012673229  -0.148317493477  -0.089170977828
 C329   C  0.466841695401  -0.092304820248  -0.443987326771
 C330   C  -0.092304820248  -0.443987326771  0.466841695401
 C331   C  -0.148317493477  -0.089170977828  -0.056012673229
 C332   C  -0.407695179752  0.059146515649  -0.351682506523
 C333   C  -0.351682506523  -0.407695179752  0.059146515649
 C334   C  -0.410829022172  0.440853484351  0.033158304599
 C335   C  0.033158304599  -0.410829022172  0.440853484351
 C336   C  -0.089170977828  -0.056012673229  -0.148317493477
 H337   H  -0.089607728574  0.031391719402  0.334215030203
 H338   H  0.197176689199  -0.423822758777  0.165784969797
 H339   H  -0.410392271426  -0.076177241223  0.120999447976
 H340   H  0.302823310801  0.468608280598  0.379000552024
 H341   H  0.334215030203  -0.089607728574  0.031391719402
 H342   H  0.031391719402  0.334215030203  -0.089607728574
 H343   H  0.379000552024  0.302823310801  0.468608280598
 H344   H  -0.423822758777  0.165784969797  0.197176689199
 H345   H  0.165784969797  0.197176689199  -0.423822758777
 H346   H  -0.076177241223  0.120999447976  -0.410392271426
 H347   H  0.120999447976  -0.410392271426  -0.076177241223
 H348   H  0.468608280598  0.379000552024  0.302823310801
 H349   H  -0.468608280598  0.410392271426  -0.165784969797
 H350   H  0.076177241223  -0.302823310801  -0.334215030203
 H351   H  0.423822758777  0.089607728574  -0.379000552024
 H352   H  -0.031391719402  -0.197176689199  -0.120999447976
 H353   H  0.410392271426  -0.165784969797  -0.468608280598
 H354   H  -0.165784969797  -0.468608280598  0.410392271426
 H355   H  -0.197176689199  -0.120999447976  -0.031391719402
 H356   H  -0.334215030203  0.076177241223  -0.302823310801
 H357   H  -0.302823310801  -0.334215030203  0.076177241223
 H358   H  -0.379000552024  0.423822758777  0.089607728574
 H359   H  0.089607728574  -0.379000552024  0.423822758777
 H360   H  -0.120999447976  -0.031391719402  -0.197176689199
 H361   H  0.086078519733  0.056592069237  0.431782251952
 H362   H  0.124809817285  -0.345703732219  0.068217748048
 H363   H  0.413921480267  -0.154296267781  -0.029486450496
 H364   H  0.375190182715  0.443407930763  -0.470513549504
 H365   H  0.431782251952  0.086078519733  0.056592069237
 H366   H  0.056592069237  0.431782251952  0.086078519733
 H367   H  -0.470513549504  0.375190182715  0.443407930763
 H368   H  -0.345703732219  0.068217748048  0.124809817285
 H369   H  0.068217748048  0.124809817285  -0.345703732219
 H370   H  -0.154296267781  -0.029486450496  0.413921480267
 H371   H  -0.029486450496  0.413921480267  -0.154296267781
 H372   H  0.443407930763  -0.470513549504  0.375190182715
 H373   H  -0.443407930763  -0.413921480267  -0.068217748048
 H374   H  0.154296267781  -0.375190182715  -0.431782251952
 H375   H  0.345703732219  -0.086078519733  0.470513549504
 H376   H  -0.056592069237  -0.124809817285  0.029486450496
 H377   H  -0.413921480267  -0.068217748048  -0.443407930763
 H378   H  -0.068217748048  -0.443407930763  -0.413921480267
 H379   H  -0.124809817285  0.029486450496  -0.056592069237
 H380   H  -0.431782251952  0.154296267781  -0.375190182715
 H381   H  -0.375190182715  -0.431782251952  0.154296267781
 H382   H  0.470513549504  0.345703732219  -0.086078519733
 H383   H  -0.086078519733  0.470513549504  0.345703732219
 H384   H  0.029486450496  -0.056592069237  -0.124809817285
 O385   O  0.003201335565  -0.039756999993  0.459144133474
 O386   O  0.001098866533  -0.455942797909  0.040855866526
 O387   O  0.496798664435  -0.044057202091  -0.042958335558
 O388   O  0.498901133467  -0.460243000007  -0.457041664442
 O389   O  0.459144133474  0.003201335565  -0.039756999993
 O390   O  -0.039756999993  0.459144133474  0.003201335565
 O391   O  -0.457041664442  0.498901133467  -0.460243000007
 O392   O  -0.455942797909  0.040855866526  0.001098866533
 O393   O  0.040855866526  0.001098866533  -0.455942797909
 O394   O  -0.044057202091  -0.042958335558  0.496798664435
 O395   O  -0.042958335558  0.496798664435  -0.044057202091
 O396   O  -0.460243000007  -0.457041664442  0.498901133467
 O397   O  0.460243000007  -0.496798664435  -0.040855866526
 O398   O  0.044057202091  -0.498901133467  -0.459144133474
 O399   O  0.455942797909  -0.003201335565  0.457041664442
 O400   O  0.039756999993  -0.001098866533  0.042958335558
 O401   O  -0.496798664435  -0.040855866526  0.460243000007
 O402   O  -0.040855866526  0.460243000007  -0.496798664435
 O403   O  -0.001098866533  0.042958335558  0.039756999993
 O404   O  -0.459144133474  0.044057202091  -0.498901133467
 O405   O  -0.498901133467  -0.459144133474  0.044057202091
 O406   O  0.457041664442  0.455942797909  -0.003201335565
 O407   O  -0.003201335565  0.457041664442  0.455942797909
 O408   O  0.042958335558  0.039756999993  -0.001098866533
 H409   H  -0.149877360395  -0.075230097346  0.185999415113
 H410   H  0.238770487542  -0.335876775507  0.314000584887
 H411   H  -0.350122639605  -0.164123224493  0.074647263049
 H412   H  0.261229512458  -0.424769902654  0.425352736951
 H413   H  0.185999415113  -0.149877360395  -0.075230097346
 H414   H  -0.075230097346  0.185999415113  -0.149877360395
 H415   H  0.425352736951  0.261229512458  -0.424769902654
 H416   H  -0.335876775507  0.314000584887  0.238770487542
 H417   H  0.314000584887  0.238770487542  -0.335876775507
 H418   H  -0.164123224493  0.074647263049  -0.350122639605
 H419   H  0.074647263049  -0.350122639605  -0.164123224493
 H420   H  -0.424769902654  0.425352736951  0.261229512458
 H421   H  0.424769902654  0.350122639605  -0.314000584887
 H422   H  0.164123224493  -0.261229512458  -0.185999415113
 H423   H  0.335876775507  0.149877360395  -0.425352736951
 H424   H  0.075230097346  -0.238770487542  -0.074647263049
 H425   H  0.350122639605  -0.314000584887  0.424769902654
 H426   H  -0.314000584887  0.424769902654  0.350122639605
 H427   H  -0.238770487542  -0.074647263049  0.075230097346
 H428   H  -0.185999415113  0.164123224493  -0.261229512458
 H429   H  -0.261229512458  -0.185999415113  0.164123224493
 H430   H  -0.425352736951  0.335876775507  0.149877360395
 H431   H  0.149877360395  -0.425352736951  0.335876775507
 H432   H  -0.074647263049  0.075230097346  -0.238770487542
 H433   H  -0.191367560444  -0.133090437603  0.311160536839
 H434   H  0.055749025558  0.497471902717  0.188839463161
 H435   H  -0.308632439556  0.002528097283  0.058277122841
 H436   H  0.444250974442  -0.366909562397  0.441722877159
 H437   H  0.311160536839  -0.191367560444  -0.133090437603
 H438   H  -0.133090437603  0.311160536839  -0.191367560444
 H439   H  0.441722877159  0.444250974442  -0.366909562397
 H440   H  0.497471902717  0.188839463161  0.055749025558
 H441   H  0.188839463161  0.055749025558  0.497471902717
 H442   H  0.002528097283  0.058277122841  -0.308632439556
 H443   H  0.058277122841  -0.308632439556  0.002528097283
 H444   H  -0.366909562397  0.441722877159  0.444250974442
 H445   H  0.366909562397  0.308632439556  -0.188839463161
 H446   H  -0.002528097283  -0.444250974442  -0.311160536839
 H447   H  -0.497471902717  0.191367560444  -0.441722877159
 H448   H  0.133090437603  -0.055749025558  -0.058277122841
 H449   H  0.308632439556  -0.188839463161  0.366909562397
 H450   H  -0.188839463161  0.366909562397  0.308632439556
 H451   H  -0.055749025558  -0.058277122841  0.133090437603
 H452   H  -0.311160536839  -0.002528097283  -0.444250974442
 H453   H  -0.444250974442  -0.311160536839  -0.002528097283
 H454   H  -0.441722877159  -0.497471902717  0.191367560444
 H455   H  0.191367560444  -0.441722877159  -0.497471902717
 H456   H  -0.058277122841  0.133090437603  -0.055749025558
 C457   C  0.024815587472  -0.017241577963  0.373793525528
 C458   C  0.108964896509  -0.348977938056  0.126206474472
 C459   C  0.475184412528  -0.151022061944  -0.042057165435
 C460   C  0.391035103491  -0.482758422037  -0.457942834565
 C461   C  0.373793525528  0.024815587472  -0.017241577963
 C462   C  -0.017241577963  0.373793525528  0.024815587472
 C463   C  -0.457942834565  0.391035103491  -0.482758422037
 C464   C  -0.348977938056  0.126206474472  0.108964896509
 C465   C  0.126206474472  0.108964896509  -0.348977938056
 C466   C  -0.151022061944  -0.042057165435  0.475184412528
 C467   C  -0.042057165435  0.475184412528  -0.151022061944
 C468   C  -0.482758422037  -0.457942834565  0.391035103491
 C469   C  0.482758422037  -0.475184412528  -0.126206474472
 C470   C  0.151022061944  -0.391035103491  -0.373793525528
 C471   C  0.348977938056  -0.024815587472  0.457942834565
 C472   C  0.017241577963  -0.108964896509  0.042057165435
 C473   C  -0.475184412528  -0.126206474472  0.482758422037
 C474   C  -0.126206474472  0.482758422037  -0.475184412528
 C475   C  -0.108964896509  0.042057165435  0.017241577963
 C476   C  -0.373793525528  0.151022061944  -0.391035103491
 C477   C  -0.391035103491  -0.373793525528  0.151022061944
 C478   C  0.457942834565  0.348977938056  -0.024815587472
 C479   C  -0.024815587472  0.457942834565  0.348977938056
 C480   C  0.042057165435  0.017241577963  -0.108964896509
 H481   H  -0.282567313570  -0.119623740235  0.186643689189
 H482   H  0.193732570576  -0.469211002759  0.313356310811
 H483   H  -0.217432686430  -0.030788997241  0.162943573335
 H484   H  0.306267429424  -0.380376259765  0.337056426665
 H485   H  0.186643689189  -0.282567313570  -0.119623740235
 H486   H  -0.119623740235  0.186643689189  -0.282567313570
 H487   H  0.337056426665  0.306267429424  -0.380376259765
 H488   H  -0.469211002759  0.313356310811  0.193732570576
 H489   H  0.313356310811  0.193732570576  -0.469211002759
 H490   H  -0.030788997241  0.162943573335  -0.217432686430
 H491   H  0.162943573335  -0.217432686430  -0.030788997241
 H492   H  -0.380376259765  0.337056426665  0.306267429424
 H493   H  0.380376259765  0.217432686430  -0.313356310811
 H494   H  0.030788997241  -0.306267429424  -0.186643689189
 H495   H  0.469211002759  0.282567313570  -0.337056426665
 H496   H  0.119623740235  -0.193732570576  -0.162943573335
 H497   H  0.217432686430  -0.313356310811  0.380376259765
 H498   H  -0.313356310811  0.380376259765  0.217432686430
 H499   H  -0.193732570576  -0.162943573335  0.119623740235
 H500   H  -0.186643689189  0.030788997241  -0.306267429424
 H501   H  -0.306267429424  -0.186643689189  0.030788997241
 H502   H  -0.337056426665  0.469211002759  0.282567313570
 H503   H  0.282567313570  -0.337056426665  0.469211002759
 H504   H  -0.162943573335  0.119623740235  -0.193732570576
 H505   H  -0.239402727380  -0.095853209452  0.272597877519
 H506   H  0.131548913029  0.487999395101  0.227402122481
 H507   H  -0.260597272620  0.012000604899  0.143549517928
 H508   H  0.368451086971  -0.404146790548  0.356450482072
 H509   H  0.272597877519  -0.239402727380  -0.095853209452
 H510   H  -0.095853209452  0.272597877519  -0.239402727380
 H511   H  0.356450482072  0.368451086971  -0.404146790548
 H512   H  0.487999395101  0.227402122481  0.131548913029
 H513   H  0.227402122481  0.131548913029  0.487999395101
 H514   H  0.012000604899  0.143549517928  -0.260597272620
 H515   H  0.143549517928  -0.260597272620  0.012000604899
 H516   H  -0.404146790548  0.356450482072  0.368451086971
 H517   H  0.404146790548  0.260597272620  -0.227402122481
 H518   H  -0.012000604899  -0.368451086971  -0.272597877519
 H519   H  -0.487999395101  0.239402727380  -0.356450482072
 H520   H  0.095853209452  -0.131548913029  -0.143549517928
 H521   H  0.260597272620  -0.227402122481  0.404146790548
 H522   H  -0.227402122481  0.404146790548  0.260597272620
 H523   H  -0.131548913029  -0.143549517928  0.095853209452
 H524   H  -0.272597877519  -0.012000604899  -0.368451086971
 H525   H  -0.368451086971  -0.272597877519  -0.012000604899
 H526   H  -0.356450482072  -0.487999395101  0.239402727380
 H527   H  0.239402727380  -0.356450482072  -0.487999395101
 H528   H  -0.143549517928  0.095853209452  -0.131548913029
 H529   H  -0.138233924166  -0.127329029856  0.384921780120
 H530   H  -0.012250809976  0.476844295715  0.115078219880
 H531   H  -0.361766075834  0.023155704285  0.010904894310
 H532   H  -0.487749190024  -0.372670970144  0.489095105690
 H533   H  0.384921780120  -0.138233924166  -0.127329029856
 H534   H  -0.127329029856  0.384921780120  -0.138233924166
 H535   H  0.489095105690  -0.487749190024  -0.372670970144
 H536   H  0.476844295715  0.115078219880  -0.012250809976
 H537   H  0.115078219880  -0.012250809976  0.476844295715
 H538   H  0.023155704285  0.010904894310  -0.361766075834
 H539   H  0.010904894310  -0.361766075834  0.023155704285
 H540   H  -0.372670970144  0.489095105690  -0.487749190024
 H541   H  0.372670970144  0.361766075834  -0.115078219880
 H542   H  -0.023155704285  0.487749190024  -0.384921780120
 H543   H  -0.476844295715  0.138233924166  -0.489095105690
 H544   H  0.127329029856  0.012250809976  -0.010904894310
 H545   H  0.361766075834  -0.115078219880  0.372670970144
 H546   H  -0.115078219880  0.372670970144  0.361766075834
 H547   H  0.012250809976  -0.010904894310  0.127329029856
 H548   H  -0.384921780120  -0.023155704285  0.487749190024
 H549   H  0.487749190024  -0.384921780120  -0.023155704285
 H550   H  -0.489095105690  -0.476844295715  0.138233924166
 H551   H  0.138233924166  -0.489095105690  -0.476844295715
 H552   H  -0.010904894310  0.127329029856  0.012250809976
 H553   H  -0.106502028931  -0.048277911283  0.272770343949
 H554   H  0.178951744769  -0.379272372880  0.227229656051
 H555   H  -0.393497971069  -0.120727627120  0.058224117648
 H556   H  0.321048255231  -0.451722088717  0.441775882352
 H557   H  0.272770343949  -0.106502028931  -0.048277911283
 H558   H  -0.048277911283  0.272770343949  -0.106502028931
 H559   H  0.441775882352  0.321048255231  -0.451722088717
 H560   H  -0.379272372880  0.227229656051  0.178951744769
 H561   H  0.227229656051  0.178951744769  -0.379272372880
 H562   H  -0.120727627120  0.058224117648  -0.393497971069
 H563   H  0.058224117648  -0.393497971069  -0.120727627120
 H564   H  -0.451722088717  0.441775882352  0.321048255231
 H565   H  0.451722088717  0.393497971069  -0.227229656051
 H566   H  0.120727627120  -0.321048255231  -0.272770343949
 H567   H  0.379272372880  0.106502028931  -0.441775882352
 H568   H  0.048277911283  -0.178951744769  -0.058224117648
 H569   H  0.393497971069  -0.227229656051  0.451722088717
 H570   H  -0.227229656051  0.451722088717  0.393497971069
 H571   H  -0.178951744769  -0.058224117648  0.048277911283
 H572   H  -0.272770343949  0.120727627120  -0.321048255231
 H573   H  -0.321048255231  -0.272770343949  0.120727627120
 H574   H  -0.441775882352  0.379272372880  0.106502028931
 H575   H  0.106502028931  -0.441775882352  0.379272372880
 H576   H  -0.058224117648  0.048277911283  -0.178951744769
 C577   C  -0.243981514527  -0.105574651964  0.205292061926
 C578   C  0.189133286110  -0.449273576453  0.294707938074
 C579   C  -0.256018485473  -0.050726423547  0.138406862563
 C580   C  0.310866713890  -0.394425348036  0.361593137437
 C581   C  0.205292061926  -0.243981514527  -0.105574651964
 C582   C  -0.105574651964  0.205292061926  -0.243981514527
 C583   C  0.361593137437  0.310866713890  -0.394425348036
 C584   C  -0.449273576453  0.294707938074  0.189133286110
 C585   C  0.294707938074  0.189133286110  -0.449273576453
 C586   C  -0.050726423547  0.138406862563  -0.256018485473
 C587   C  0.138406862563  -0.256018485473  -0.050726423547
 C588   C  -0.394425348036  0.361593137437  0.310866713890
 C589   C  0.394425348036  0.256018485473  -0.294707938074
 C590   C  0.050726423547  -0.310866713890  -0.205292061926
 C591   C  0.449273576453  0.243981514527  -0.361593137437
 C592   C  0.105574651964  -0.189133286110  -0.138406862563
 C593   C  0.256018485473  -0.294707938074  0.394425348036
 C594   C  -0.294707938074  0.394425348036  0.256018485473
 C595   C  -0.189133286110  -0.138406862563  0.105574651964
 C596   C  -0.205292061926  0.050726423547  -0.310866713890
 C597   C  -0.310866713890  -0.205292061926  0.050726423547
 C598   C  -0.361593137437  0.449273576453  0.243981514527
 C599   C  0.243981514527  -0.361593137437  0.449273576453
 C600   C  -0.138406862563  0.105574651964  -0.189133286110
 C601   C  -0.170104600736  -0.072416581441  0.277712403547
 C602   C  0.149871015012  -0.447817004283  0.222287596453
 C603   C  -0.329895399264  -0.052182995717  0.097688019295
 C604   C  0.350128984988  -0.427583418559  0.402311980705
 C605   C  0.277712403547  -0.170104600736  -0.072416581441
 C606   C  -0.072416581441  0.277712403547  -0.170104600736
 C607   C  0.402311980705  0.350128984988  -0.427583418559
 C608   C  -0.447817004283  0.222287596453  0.149871015012
 C609   C  0.222287596453  0.149871015012  -0.447817004283
 C610   C  -0.052182995717  0.097688019295  -0.329895399264
 C611   C  0.097688019295  -0.329895399264  -0.052182995717
 C612   C  -0.427583418559  0.402311980705  0.350128984988
 C613   C  0.427583418559  0.329895399264  -0.222287596453
 C614   C  0.052182995717  -0.350128984988  -0.277712403547
 C615   C  0.447817004283  0.170104600736  -0.402311980705
 C616   C  0.072416581441  -0.149871015012  -0.097688019295
 C617   C  0.329895399264  -0.222287596453  0.427583418559
 C618   C  -0.222287596453  0.427583418559  0.329895399264
 C619   C  -0.149871015012  -0.097688019295  0.072416581441
 C620   C  -0.277712403547  0.052182995717  -0.350128984988
 C621   C  -0.350128984988  -0.277712403547  0.052182995717
 C622   C  -0.402311980705  0.447817004283  0.170104600736
 C623   C  0.170104600736  -0.402311980705  0.447817004283
 C624   C  -0.097688019295  0.072416581441  -0.149871015012
 C625   C  -0.219823423808  -0.102561009995  0.179354254306
 C626   C  0.218084735700  -0.399177678114  0.320645745694
 C627   C  -0.280176576192  -0.100822321887  0.117262413813
 C628   C  0.281915264300  -0.397438990005  0.382737586187
 C629   C  0.179354254306  -0.219823423808  -0.102561009995
 C630   C  -0.102561009995  0.179354254306  -0.219823423808
 C631   C  0.382737586187  0.281915264300  -0.397438990005
 C632   C  -0.399177678114  0.320645745694  0.218084735700
 C633   C  0.320645745694  0.218084735700  -0.399177678114
 C634   C  -0.100822321887  0.117262413813  -0.280176576192
 C635   C  0.117262413813  -0.280176576192  -0.100822321887
 C636   C  -0.397438990005  0.382737586187  0.281915264300
 C637   C  0.397438990005  0.280176576192  -0.320645745694
 C638   C  0.100822321887  -0.281915264300  -0.179354254306
 C639   C  0.399177678114  0.219823423808  -0.382737586187
 C640   C  0.102561009995  -0.218084735700  -0.117262413813
 C641   C  0.280176576192  -0.320645745694  0.397438990005
 C642   C  -0.320645745694  0.397438990005  0.280176576192
 C643   C  -0.218084735700  -0.117262413813  0.102561009995
 C644   C  -0.179354254306  0.100822321887  -0.281915264300
 C645   C  -0.281915264300  -0.179354254306  0.100822321887
 C646   C  -0.382737586187  0.399177678114  0.219823423808
 C647   C  0.219823423808  -0.382737586187  0.399177678114
 C648   C  -0.117262413813  0.102561009995  -0.218084735700
 C649   C  -0.169914315592  -0.079856251539  0.204619825441
 C650   C  0.215523923020  -0.374534141032  0.295380174559
 C651   C  -0.330085684408  -0.125465858968  0.090058064052
 C652   C  0.284476076980  -0.420143748461  0.409941935948
 C653   C  0.204619825441  -0.169914315592  -0.079856251539
 C654   C  -0.079856251539  0.204619825441  -0.169914315592
 C655   C  0.409941935948  0.284476076980  -0.420143748461
 C656   C  -0.374534141032  0.295380174559  0.215523923020
 C657   C  0.295380174559  0.215523923020  -0.374534141032
 C658   C  -0.125465858968  0.090058064052  -0.330085684408
 C659   C  0.090058064052  -0.330085684408  -0.125465858968
 C660   C  -0.420143748461  0.409941935948  0.284476076980
 C661   C  0.420143748461  0.330085684408  -0.295380174559
 C662   C  0.125465858968  -0.284476076980  -0.204619825441
 C663   C  0.374534141032  0.169914315592  -0.409941935948
 C664   C  0.079856251539  -0.215523923020  -0.090058064052
 C665   C  0.330085684408  -0.295380174559  0.420143748461
 C666   C  -0.295380174559  0.420143748461  0.330085684408
 C667   C  -0.215523923020  -0.090058064052  0.079856251539
 C668   C  -0.204619825441  0.125465858968  -0.284476076980
 C669   C  -0.284476076980  -0.204619825441  0.125465858968
 C670   C  -0.409941935948  0.374534141032  0.169914315592
 C671   C  0.169914315592  -0.409941935948  0.374534141032
 C672   C  -0.090058064052  0.079856251539  -0.215523923020
 C673   C  -0.080464077892  -0.057243317041  0.411272784670
 C674   C  0.031483898289  -0.491736862563  0.088727215329
 C675   C  -0.419535922108  -0.008263137437  0.023220760852
 C676   C  0.468516101711  -0.442756682959  0.476779239148
 C677   C  0.411272784670  -0.080464077892  -0.057243317041
 C678   C  -0.057243317041  0.411272784670  -0.080464077892
 C679   C  0.476779239148  0.468516101711  -0.442756682959
 C680   C  -0.491736862563  0.088727215329  0.031483898289
 C681   C  0.088727215329  0.031483898289  -0.491736862563
 C682   C  -0.008263137437  0.023220760852  -0.419535922108
 C683   C  0.023220760852  -0.419535922108  -0.008263137437
 C684   C  -0.442756682959  0.476779239148  0.468516101711
 C685   C  0.442756682959  0.419535922108  -0.088727215329
 C686   C  0.008263137437  -0.468516101711  -0.411272784670
 C687   C  0.491736862563  0.080464077892  -0.476779239148
 C688   C  0.057243317041  -0.031483898289  -0.023220760852
 C689   C  0.419535922108  -0.088727215329  0.442756682959
 C690   C  -0.088727215329  0.442756682959  0.419535922108
 C691   C  -0.031483898289  -0.023220760852  0.057243317041
 C692   C  -0.411272784670  0.008263137437  -0.468516101711
 C693   C  -0.468516101711  -0.411272784670  0.008263137437
 C694   C  -0.476779239148  0.491736862563  0.080464077892
 C695   C  0.080464077892  -0.476779239148  0.491736862563
 C696   C  -0.023220760852  0.057243317041  -0.031483898289
 C697   C  -0.098936714884  -0.022045283832  0.360296765236
 C698   C  0.117657950932  -0.459233480120  0.139703234764
 C699   C  -0.401063285117  -0.040766519880  0.076891431052
 C700   C  0.382342049068  -0.477954716168  0.423108568948
 C701   C  0.360296765236  -0.098936714884  -0.022045283832
 C702   C  -0.022045283832  0.360296765236  -0.098936714884
 C703   C  0.423108568948  0.382342049068  -0.477954716168
 C704   C  -0.459233480120  0.139703234764  0.117657950932
 C705   C  0.139703234764  0.117657950932  -0.459233480120
 C706   C  -0.040766519880  0.076891431052  -0.401063285117
 C707   C  0.076891431052  -0.401063285117  -0.040766519880
 C708   C  -0.477954716168  0.423108568948  0.382342049068
 C709   C  0.477954716168  0.401063285117  -0.139703234764
 C710   C  0.040766519880  -0.382342049068  -0.360296765236
 C711   C  0.459233480120  0.098936714884  -0.423108568948
 C712   C  0.022045283832  -0.117657950932  -0.076891431052
 C713   C  0.401063285117  -0.139703234764  0.477954716168
 C714   C  -0.139703234764  0.477954716168  0.401063285117
 C715   C  -0.117657950932  -0.076891431052  0.022045283832
 C716   C  -0.360296765236  0.040766519880  -0.382342049068
 C717   C  -0.382342049068  -0.360296765236  0.040766519880
 C718   C  -0.423108568948  0.459233480120  0.098936714884
 C719   C  0.098936714884  -0.423108568948  0.459233480120
 C720   C  -0.076891431052  0.022045283832  -0.117657950932
 C721   C  -0.219871169620  -0.091970954592  0.253347545047
 C722   C  0.154681500361  -0.473218714667  0.246652454953
 C723   C  -0.280128830380  -0.026781285333  0.127900215028
 C724   C  0.345318499639  -0.408029045408  0.372099784972
 C725   C  0.253347545047  -0.219871169620  -0.091970954592
 C726   C  -0.091970954592  0.253347545047  -0.219871169620
 C727   C  0.372099784972  0.345318499639  -0.408029045408
 C728   C  -0.473218714667  0.246652454953  0.154681500361
 C729   C  0.246652454953  0.154681500361  -0.473218714667
 C730   C  -0.026781285333  0.127900215028  -0.280128830380
 C731   C  0.127900215028  -0.280128830380  -0.026781285333
 C732   C  -0.408029045408  0.372099784972  0.345318499639
 C733   C  0.408029045408  0.280128830380  -0.246652454953
 C734   C  0.026781285333  -0.345318499639  -0.253347545047
 C735   C  0.473218714667  0.219871169620  -0.372099784972
 C736   C  0.091970954592  -0.154681500361  -0.127900215028
 C737   C  0.280128830380  -0.246652454953  0.408029045408
 C738   C  -0.246652454953  0.408029045408  0.280128830380
 C739   C  -0.154681500361  -0.127900215028  0.091970954592
 C740   C  -0.253347545047  0.026781285333  -0.345318499639
 C741   C  -0.345318499639  -0.253347545047  0.026781285333
 C742   C  -0.372099784972  0.473218714667  0.219871169620
 C743   C  0.219871169620  -0.372099784972  0.473218714667
 C744   C  -0.127900215028  0.091970954592  -0.154681500361
 C745   C  -0.142859373794  -0.063696628990  0.326306041300
 C746   C  0.109997329710  -0.469165415094  0.173693958700
 C747   C  -0.357140626206  -0.030834584906  0.079162744804
 C748   C  0.390002670290  -0.436303371010  0.420837255196
 C749   C  0.326306041300  -0.142859373794  -0.063696628990
 C750   C  -0.063696628990  0.326306041300  -0.142859373794
 C751   C  0.420837255196  0.390002670290  -0.436303371010
 C752   C  -0.469165415094  0.173693958700  0.109997329710
 C753   C  0.173693958700  0.109997329710  -0.469165415094
 C754   C  -0.030834584906  0.079162744804  -0.357140626206
 C755   C  0.079162744804  -0.357140626206  -0.030834584906
 C756   C  -0.436303371010  0.420837255196  0.390002670290
 C757   C  0.436303371010  0.357140626206  -0.173693958700
 C758   C  0.030834584906  -0.390002670290  -0.326306041300
 C759   C  0.469165415094  0.142859373794  -0.420837255196
 C760   C  0.063696628990  -0.109997329710  -0.079162744804
 C761   C  0.357140626206  -0.173693958700  0.436303371010
 C762   C  -0.173693958700  0.436303371010  0.357140626206
 C763   C  -0.109997329710  -0.079162744804  0.063696628990
 C764   C  -0.326306041300  0.030834584906  -0.390002670290
 C765   C  -0.390002670290  -0.326306041300  0.030834584906
 C766   C  -0.420837255196  0.469165415094  0.142859373794
 C767   C  0.142859373794  -0.420837255196  0.469165415094
 C768   C  -0.079162744804  0.063696628990  -0.109997329710
 C769   C  -0.145447148668  -0.064688138870  0.253208290773
 C770   C  0.182103570357  -0.398655439441  0.246791709227
 C771   C  -0.354552851332  -0.101344560559  0.080759009798
 C772   C  0.317896429643  -0.435311861130  0.419240990202
 C773   C  0.253208290773  -0.145447148668  -0.064688138870
 C774   C  -0.064688138870  0.253208290773  -0.145447148668
 C775   C  0.419240990202  0.317896429643  -0.435311861130
 C776   C  -0.398655439441  0.246791709227  0.182103570357
 C777   C  0.246791709227  0.182103570357  -0.398655439441
 C778   C  -0.101344560559  0.080759009798  -0.354552851332
 C779   C  0.080759009798  -0.354552851332  -0.101344560559
 C780   C  -0.435311861130  0.419240990202  0.317896429643
 C781   C  0.435311861130  0.354552851332  -0.246791709227
 C782   C  0.101344560559  -0.317896429643  -0.253208290773
 C783   C  0.398655439441  0.145447148668  -0.419240990202
 C784   C  0.064688138870  -0.182103570357  -0.080759009798
 C785   C  0.354552851332  -0.246791709227  0.435311861130
 C786   C  -0.246791709227  0.435311861130  0.354552851332
 C787   C  -0.182103570357  -0.080759009798  0.064688138870
 C788   C  -0.253208290773  0.101344560559  -0.317896429643
 C789   C  -0.317896429643  -0.253208290773  0.101344560559
 C790   C  -0.419240990202  0.398655439441  0.145447148668
 C791   C  0.145447148668  -0.419240990202  0.398655439441
 C792   C  -0.080759009798  0.064688138870  -0.182103570357
 C793   C  -0.126773769441  -0.097143117120  0.378872891656
 C794   C  0.023983991224  0.494353338903  0.121127108344
 C795   C  -0.373226230559  0.005646661097  0.029630652321
 C796   C  0.476016008776  -0.402856882880  0.470369347679
 C797   C  0.378872891656  -0.126773769441  -0.097143117120
 C798   C  -0.097143117120  0.378872891656  -0.126773769441
 C799   C  0.470369347679  0.476016008776  -0.402856882880
 C800   C  0.494353338903  0.121127108344  0.023983991224
 C801   C  0.121127108344  0.023983991224  0.494353338903
 C802   C  0.005646661097  0.029630652321  -0.373226230559
 C803   C  0.029630652321  -0.373226230559  0.005646661097
 C804   C  -0.402856882880  0.470369347679  0.476016008776
 C805   C  0.402856882880  0.373226230559  -0.121127108344
 C806   C  -0.005646661097  -0.476016008776  -0.378872891656
 C807   C  -0.494353338903  0.126773769441  -0.470369347679
 C808   C  0.097143117120  -0.023983991224  -0.029630652321
 C809   C  0.373226230559  -0.121127108344  0.402856882880
 C810   C  -0.121127108344  0.402856882880  0.373226230559
 C811   C  -0.023983991224  -0.029630652321  0.097143117120
 C812   C  -0.378872891656  -0.005646661097  -0.476016008776
 C813   C  -0.476016008776  -0.378872891656  -0.005646661097
 C814   C  -0.470369347679  -0.494353338903  0.126773769441
 C815   C  0.126773769441  -0.470369347679  -0.494353338903
 C816   C  -0.029630652321  0.097143117120  -0.023983991224
 C817   C  -0.067916793267  -0.019096170716  0.402338102972
 C818   C  0.078565726311  -0.470254896239  0.097661897028
 C819   C  -0.432083206733  -0.029745103761  0.048820622551
 C820   C  0.421434273689  -0.480903829284  0.451179377449
 C821   C  0.402338102972  -0.067916793267  -0.019096170716
 C822   C  -0.019096170716  0.402338102972  -0.067916793267
 C823   C  0.451179377449  0.421434273689  -0.480903829284
 C824   C  -0.470254896239  0.097661897028  0.078565726311
 C825   C  0.097661897028  0.078565726311  -0.470254896239
 C826   C  -0.029745103761  0.048820622551  -0.432083206733
 C827   C  0.048820622551  -0.432083206733  -0.029745103761
 C828   C  -0.480903829284  0.451179377449  0.421434273689
 C829   C  0.480903829284  0.432083206733  -0.097661897028
 C830   C  0.029745103761  -0.421434273689  -0.402338102972
 C831   C  0.470254896239  0.067916793267  -0.451179377449
 C832   C  0.019096170716  -0.078565726311  -0.048820622551
 C833   C  0.432083206733  -0.097661897028  0.480903829284
 C834   C  -0.097661897028  0.480903829284  0.432083206733
 C835   C  -0.078565726311  -0.048820622551  0.019096170716
 C836   C  -0.402338102972  0.029745103761  -0.421434273689
 C837   C  -0.421434273689  -0.402338102972  0.029745103761
 C838   C  -0.451179377449  0.470254896239  0.067916793267
 C839   C  0.067916793267  -0.451179377449  0.470254896239
 C840   C  -0.048820622551  0.019096170716  -0.078565726311
 B841   B  -0.040708575423  -0.049682706782  0.456244252890
 B842   B  -0.005926959672  -0.496952828313  0.043755747110
 B843   B  -0.459291424577  -0.003047171687  -0.008974131359
 B844   B  -0.494073040328  -0.450317293218  -0.491025868641
 B845   B  0.456244252890  -0.040708575423  -0.049682706782
 B846   B  -0.049682706782  0.456244252890  -0.040708575423
 B847   B  -0.491025868641  -0.494073040328  -0.450317293218
 B848   B  -0.496952828313  0.043755747110  -0.005926959672
 B849   B  0.043755747110  -0.005926959672  -0.496952828313
 B850   B  -0.003047171687  -0.008974131359  -0.459291424577
 B851   B  -0.008974131359  -0.459291424577  -0.003047171687
 B852   B  -0.450317293218  -0.491025868641  -0.494073040328
 B853   B  0.450317293218  0.459291424577  -0.043755747110
 B854   B  0.003047171687  0.494073040328  -0.456244252890
 B855   B  0.496952828313  0.040708575423  0.491025868641
 B856   B  0.049682706782  0.005926959672  0.008974131359
 B857   B  0.459291424577  -0.043755747110  0.450317293218
 B858   B  -0.043755747110  0.450317293218  0.459291424577
 B859   B  0.005926959672  0.008974131359  0.049682706782
 B860   B  -0.456244252890  0.003047171687  0.494073040328
 B861   B  0.494073040328  -0.456244252890  0.003047171687
 B862   B  0.491025868641  0.496952828313  0.040708575423
 B863   B  0.040708575423  0.491025868641  0.496952828313
 B864   B  0.008974131359  0.049682706782  0.005926959672
 C865   C  -0.157050166385  -0.100345301967  0.337452005965
 C866   C  0.062202692068  -0.494502172350  0.162547994035
 C867   C  -0.342949833615  -0.005497827650  0.056704864418
 C868   C  0.437797307932  -0.399654698033  0.443295135582
 C869   C  0.337452005965  -0.157050166385  -0.100345301967
 C870   C  -0.100345301967  0.337452005965  -0.157050166385
 C871   C  0.443295135582  0.437797307932  -0.399654698033
 C872   C  -0.494502172350  0.162547994035  0.062202692068
 C873   C  0.162547994035  0.062202692068  -0.494502172350
 C874   C  -0.005497827650  0.056704864418  -0.342949833615
 C875   C  0.056704864418  -0.342949833615  -0.005497827650
 C876   C  -0.399654698033  0.443295135582  0.437797307932
 C877   C  0.399654698033  0.342949833615  -0.162547994035
 C878   C  0.005497827650  -0.437797307932  -0.337452005965
 C879   C  0.494502172350  0.157050166385  -0.443295135582
 C880   C  0.100345301967  -0.062202692068  -0.056704864418
 C881   C  0.342949833615  -0.162547994035  0.399654698033
 C882   C  -0.162547994035  0.399654698033  0.342949833615
 C883   C  -0.062202692068  -0.056704864418  0.100345301967
 C884   C  -0.337452005965  0.005497827650  -0.437797307932
 C885   C  -0.437797307932  -0.337452005965  0.005497827650
 C886   C  -0.443295135582  0.494502172350  0.157050166385
 C887   C  0.157050166385  -0.443295135582  0.494502172350
 C888   C  -0.056704864418  0.100345301967  -0.062202692068
 C889   C  -0.375000000000  0.375000000000  0.250000000000
 C890   C  -0.125000000000  0.125000000000  -0.250000000000
 C891   C  0.250000000000  -0.375000000000  0.375000000000
 C892   C  0.375000000000  0.250000000000  -0.375000000000
 C893   C  -0.250000000000  -0.125000000000  0.125000000000
 C894   C  0.125000000000  -0.250000000000  -0.125000000000
