data_MSUCOF-4-MnCp_BULK_OPTGEOM_DZ_optimized.outout

_cell_length_a                         37.26367355
_cell_length_b                         37.26367355
_cell_length_c                         37.26367355
_cell_angle_alpha                      109.47122100
_cell_angle_beta                       109.47122100
_cell_angle_gamma                      109.47122100
_symmetry_space_group_name_H-M         'P 1'
_symmetry_Int_Tables_number            1

loop_
_symmetry_equiv_pos_as_xyz
   'x, y, z'

loop_
   _atom_site_label
   _atom_site_type_symbol
   _atom_site_fract_x
   _atom_site_fract_y
   _atom_site_fract_z
 H001   H  0.048538464123  0.017526780227  0.332175222531
 H002   H  0.185351557697  -0.283636758407  0.167824777470
 H003   H  0.451461535877  -0.216363241593  -0.031011683896
 H004   H  0.314648442303  0.482473219773  -0.468988316104
 H005   H  0.332175222531  0.048538464123  0.017526780227
 H006   H  0.017526780227  0.332175222531  0.048538464123
 H007   H  -0.468988316104  0.314648442303  0.482473219773
 H008   H  -0.283636758407  0.167824777470  0.185351557697
 H009   H  0.167824777470  0.185351557697  -0.283636758407
 H010   H  -0.216363241593  -0.031011683896  0.451461535877
 H011   H  -0.031011683896  0.451461535877  -0.216363241593
 H012   H  0.482473219773  -0.468988316104  0.314648442303
 H013   H  -0.482473219773  -0.451461535877  -0.167824777470
 H014   H  0.216363241593  -0.314648442303  -0.332175222531
 H015   H  0.283636758407  -0.048538464123  0.468988316104
 H016   H  -0.017526780227  -0.185351557697  0.031011683896
 H017   H  -0.451461535877  -0.167824777470  -0.482473219773
 H018   H  -0.167824777470  -0.482473219773  -0.451461535877
 H019   H  -0.185351557697  0.031011683896  -0.017526780227
 H020   H  -0.332175222531  0.216363241593  -0.314648442303
 H021   H  -0.314648442303  -0.332175222531  0.216363241593
 H022   H  0.468988316104  0.283636758407  -0.048538464123
 H023   H  -0.048538464123  0.468988316104  0.283636758407
 H024   H  0.031011683896  -0.017526780227  -0.185351557697
 H025   H  -0.077807264948  -0.090560921099  0.289939783098
 H026   H  0.119499295803  -0.367747048046  0.210060216902
 H027   H  -0.422192735052  -0.132252951954  -0.012753656151
 H028   H  0.380500704197  -0.409439078901  -0.487246343849
 H029   H  0.289939783098  -0.077807264948  -0.090560921099
 H030   H  -0.090560921099  0.289939783098  -0.077807264948
 H031   H  -0.487246343849  0.380500704197  -0.409439078901
 H032   H  -0.367747048046  0.210060216902  0.119499295803
 H033   H  0.210060216902  0.119499295803  -0.367747048046
 H034   H  -0.132252951954  -0.012753656151  -0.422192735052
 H035   H  -0.012753656151  -0.422192735052  -0.132252951954
 H036   H  -0.409439078901  -0.487246343849  0.380500704197
 H037   H  0.409439078901  0.422192735052  -0.210060216902
 H038   H  0.132252951954  -0.380500704197  -0.289939783098
 H039   H  0.367747048046  0.077807264948  0.487246343849
 H040   H  0.090560921099  -0.119499295803  0.012753656151
 H041   H  0.422192735052  -0.210060216902  0.409439078901
 H042   H  -0.210060216902  0.409439078901  0.422192735052
 H043   H  -0.119499295803  0.012753656151  0.090560921099
 H044   H  -0.289939783098  0.132252951954  -0.380500704197
 H045   H  -0.380500704197  -0.289939783098  0.132252951954
 H046   H  0.487246343849  0.367747048046  0.077807264948
 H047   H  0.077807264948  0.487246343849  0.367747048046
 H048   H  0.012753656151  0.090560921099  -0.119499295803
 H049   H  -0.030149891455  -0.050397733591  0.377666002362
 H050   H  0.071936264047  -0.407815893817  0.122333997637
 H051   H  -0.469850108545  -0.092184106182  -0.020247842136
 H052   H  0.428063735953  -0.449602266409  -0.479752157864
 H053   H  0.377666002362  -0.030149891455  -0.050397733591
 H054   H  -0.050397733591  0.377666002362  -0.030149891455
 H055   H  -0.479752157864  0.428063735953  -0.449602266409
 H056   H  -0.407815893817  0.122333997637  0.071936264047
 H057   H  0.122333997637  0.071936264047  -0.407815893817
 H058   H  -0.092184106182  -0.020247842136  -0.469850108545
 H059   H  -0.020247842136  -0.469850108545  -0.092184106182
 H060   H  -0.449602266409  -0.479752157864  0.428063735953
 H061   H  0.449602266409  0.469850108545  -0.122333997637
 H062   H  0.092184106182  -0.428063735953  -0.377666002362
 H063   H  0.407815893817  0.030149891455  0.479752157864
 H064   H  0.050397733591  -0.071936264047  0.020247842136
 H065   H  0.469850108545  -0.122333997637  0.449602266409
 H066   H  -0.122333997637  0.449602266409  0.469850108545
 H067   H  -0.071936264047  0.020247842136  0.050397733591
 H068   H  -0.377666002362  0.092184106182  -0.428063735953
 H069   H  -0.428063735953  -0.377666002362  0.092184106182
 H070   H  0.479752157864  0.407815893817  0.030149891455
 H071   H  0.030149891455  0.479752157864  0.407815893817
 H072   H  0.020247842136  0.050397733591  -0.071936264047
 H073   H  -0.029674042098  -0.048949175436  0.261420639048
 H074   H  0.189630185515  -0.291094681147  0.238579360952
 H075   H  -0.470325957902  -0.208905318853  -0.019275133338
 H076   H  0.310369814485  -0.451050824564  -0.480724866662
 H077   H  0.261420639048  -0.029674042098  -0.048949175436
 H078   H  -0.048949175436  0.261420639048  -0.029674042098
 H079   H  -0.480724866662  0.310369814485  -0.451050824564
 H080   H  -0.291094681147  0.238579360952  0.189630185515
 H081   H  0.238579360952  0.189630185515  -0.291094681147
 H082   H  -0.208905318853  -0.019275133338  -0.470325957902
 H083   H  -0.019275133338  -0.470325957902  -0.208905318853
 H084   H  -0.451050824564  -0.480724866662  0.310369814485
 H085   H  0.451050824564  0.470325957902  -0.238579360952
 H086   H  0.208905318853  -0.310369814485  -0.261420639048
 H087   H  0.291094681147  0.029674042098  0.480724866662
 H088   H  0.048949175436  -0.189630185515  0.019275133338
 H089   H  0.470325957902  -0.238579360952  0.451050824564
 H090   H  -0.238579360952  0.451050824564  0.470325957902
 H091   H  -0.189630185515  0.019275133338  0.048949175436
 H092   H  -0.261420639048  0.208905318853  -0.310369814485
 H093   H  -0.310369814485  -0.261420639048  0.208905318853
 H094   H  0.480724866662  0.291094681147  0.029674042098
 H095   H  0.029674042098  0.480724866662  0.291094681147
 H096   H  0.019275133338  0.048949175436  -0.189630185515
 C097   C  0.022014927543  -0.005570291018  0.332723904087
 C098   C  0.161705804895  -0.310708976543  0.167276095913
 C099   C  0.477985072457  -0.189291023457  -0.027585218562
 C100   C  0.338294195105  -0.494429708982  -0.472414781438
 C101   C  0.332723904087  0.022014927543  -0.005570291018
 C102   C  -0.005570291018  0.332723904087  0.022014927543
 C103   C  -0.472414781438  0.338294195105  -0.494429708982
 C104   C  -0.310708976543  0.167276095913  0.161705804895
 C105   C  0.167276095913  0.161705804895  -0.310708976543
 C106   C  -0.189291023457  -0.027585218562  0.477985072457
 C107   C  -0.027585218562  0.477985072457  -0.189291023457
 C108   C  -0.494429708982  -0.472414781438  0.338294195105
 C109   C  0.494429708982  -0.477985072457  -0.167276095913
 C110   C  0.189291023457  -0.338294195105  -0.332723904087
 C111   C  0.310708976543  -0.022014927543  0.472414781438
 C112   C  0.005570291018  -0.161705804895  0.027585218562
 C113   C  -0.477985072457  -0.167276095913  0.494429708982
 C114   C  -0.167276095913  0.494429708982  -0.477985072457
 C115   C  -0.161705804895  0.027585218562  0.005570291018
 C116   C  -0.332723904087  0.189291023457  -0.338294195105
 C117   C  -0.338294195105  -0.332723904087  0.189291023457
 C118   C  0.472414781438  0.310708976543  -0.022014927543
 C119   C  -0.022014927543  0.472414781438  0.310708976543
 C120   C  0.027585218562  0.005570291018  -0.161705804895
 C121   C  0.022350695323  -0.006758340353  0.370853681640
 C122   C  0.122387978007  -0.348502986318  0.129146318360
 C123   C  0.477649304677  -0.151497013682  -0.029109035675
 C124   C  0.377612021993  -0.493241659647  -0.470890964325
 C125   C  0.370853681640  0.022350695323  -0.006758340353
 C126   C  -0.006758340353  0.370853681640  0.022350695323
 C127   C  -0.470890964325  0.377612021993  -0.493241659647
 C128   C  -0.348502986318  0.129146318360  0.122387978007
 C129   C  0.129146318360  0.122387978007  -0.348502986318
 C130   C  -0.151497013682  -0.029109035675  0.477649304677
 C131   C  -0.029109035675  0.477649304677  -0.151497013682
 C132   C  -0.493241659647  -0.470890964325  0.377612021993
 C133   C  0.493241659647  -0.477649304677  -0.129146318360
 C134   C  0.151497013682  -0.377612021993  -0.370853681640
 C135   C  0.348502986318  -0.022350695323  0.470890964325
 C136   C  0.006758340353  -0.122387978007  0.029109035675
 C137   C  -0.477649304677  -0.129146318360  0.493241659647
 C138   C  -0.129146318360  0.493241659647  -0.477649304677
 C139   C  -0.122387978007  0.029109035675  0.006758340353
 C140   C  -0.370853681640  0.151497013682  -0.377612021993
 C141   C  -0.377612021993  -0.370853681640  0.151497013682
 C142   C  0.470890964325  0.348502986318  -0.022350695323
 C143   C  -0.022350695323  0.470890964325  0.348502986318
 C144   C  0.029109035675  0.006758340353  -0.122387978007
 C145   C  -0.019158060570  -0.041014808948  0.295288868912
 C146   C  0.163696322140  -0.314446929482  0.204711131088
 C147   C  -0.480841939430  -0.185553070518  -0.021856748378
 C148   C  0.336303677860  -0.458985191052  -0.478143251622
 C149   C  0.295288868912  -0.019158060570  -0.041014808948
 C150   C  -0.041014808948  0.295288868912  -0.019158060570
 C151   C  -0.478143251622  0.336303677860  -0.458985191052
 C152   C  -0.314446929482  0.204711131088  0.163696322140
 C153   C  0.204711131088  0.163696322140  -0.314446929482
 C154   C  -0.185553070518  -0.021856748378  -0.480841939430
 C155   C  -0.021856748378  -0.480841939430  -0.185553070518
 C156   C  -0.458985191052  -0.478143251622  0.336303677860
 C157   C  0.458985191052  0.480841939430  -0.204711131088
 C158   C  0.185553070518  -0.336303677860  -0.295288868912
 C159   C  0.314446929482  0.019158060570  0.478143251622
 C160   C  0.041014808948  -0.163696322140  0.021856748378
 C161   C  0.480841939430  -0.204711131088  0.458985191052
 C162   C  -0.204711131088  0.458985191052  0.480841939430
 C163   C  -0.163696322140  0.021856748378  0.041014808948
 C164   C  -0.295288868912  0.185553070518  -0.336303677860
 C165   C  -0.336303677860  -0.295288868912  0.185553070518
 C166   C  0.478143251622  0.314446929482  0.019158060570
 C167   C  0.019158060570  0.478143251622  0.314446929482
 C168   C  0.021856748378  0.041014808948  -0.163696322140
Mn169  Mn  -0.026859011685  0.004156648488  0.340495126733
Mn170  Mn  0.163661521755  -0.367354138418  0.159504873267
Mn171  Mn  -0.473140988315  -0.132645861582  0.031015660173
Mn172  Mn  0.336338478245  0.495843351512  0.468984339827
Mn173  Mn  0.340495126733  -0.026859011685  0.004156648488
Mn174  Mn  0.004156648488  0.340495126733  -0.026859011685
Mn175  Mn  0.468984339827  0.336338478245  0.495843351512
Mn176  Mn  -0.367354138418  0.159504873267  0.163661521755
Mn177  Mn  0.159504873267  0.163661521755  -0.367354138418
Mn178  Mn  -0.132645861582  0.031015660173  -0.473140988315
Mn179  Mn  0.031015660173  -0.473140988315  -0.132645861582
Mn180  Mn  0.495843351512  0.468984339827  0.336338478245
Mn181  Mn  -0.495843351512  0.473140988315  -0.159504873267
Mn182  Mn  0.132645861582  -0.336338478245  -0.340495126733
Mn183  Mn  0.367354138418  0.026859011685  -0.468984339827
Mn184  Mn  -0.004156648488  -0.163661521755  -0.031015660173
Mn185  Mn  0.473140988315  -0.159504873267  -0.495843351512
Mn186  Mn  -0.159504873267  -0.495843351512  0.473140988315
Mn187  Mn  -0.163661521755  -0.031015660173  -0.004156648488
Mn188  Mn  -0.340495126733  0.132645861582  -0.336338478245
Mn189  Mn  -0.336338478245  -0.340495126733  0.132645861582
Mn190  Mn  -0.468984339827  0.367354138418  0.026859011685
Mn191  Mn  0.026859011685  -0.468984339827  0.367354138418
Mn192  Mn  -0.031015660173  -0.004156648488  -0.163661521755
 H193   H  0.018151141712  0.086734389591  0.417601837584
 H194   H  0.169132552007  -0.399450695872  0.082398162416
 H195   H  0.481848858288  -0.100549304128  0.068583247879
 H196   H  0.330867447993  0.413265610409  0.431416752121
 H197   H  0.417601837584  0.018151141712  0.086734389591
 H198   H  0.086734389591  0.417601837584  0.018151141712
 H199   H  0.431416752121  0.330867447993  0.413265610409
 H200   H  -0.399450695872  0.082398162416  0.169132552007
 H201   H  0.082398162416  0.169132552007  -0.399450695872
 H202   H  -0.100549304128  0.068583247879  0.481848858288
 H203   H  0.068583247879  0.481848858288  -0.100549304128
 H204   H  0.413265610409  0.431416752121  0.330867447993
 H205   H  -0.413265610409  -0.481848858288  -0.082398162416
 H206   H  0.100549304128  -0.330867447993  -0.417601837584
 H207   H  0.399450695872  -0.018151141712  -0.431416752121
 H208   H  -0.086734389591  -0.169132552007  -0.068583247879
 H209   H  -0.481848858288  -0.082398162416  -0.413265610409
 H210   H  -0.082398162416  -0.413265610409  -0.481848858288
 H211   H  -0.169132552007  -0.068583247879  -0.086734389591
 H212   H  -0.417601837584  0.100549304128  -0.330867447993
 H213   H  -0.330867447993  -0.417601837584  0.100549304128
 H214   H  -0.431416752121  0.399450695872  -0.018151141712
 H215   H  -0.018151141712  -0.431416752121  0.399450695872
 H216   H  -0.068583247879  -0.086734389591  -0.169132552007
 C217   C  -0.044064044985  -0.063593479918  0.310122569831
 C218   C  0.126283950250  -0.354186614816  0.189877430169
 C219   C  -0.455935955015  -0.145813385184  -0.019529434934
 C220   C  0.373716049750  -0.436406520082  -0.480470565066
 C221   C  0.310122569831  -0.044064044985  -0.063593479918
 C222   C  -0.063593479918  0.310122569831  -0.044064044985
 C223   C  -0.480470565066  0.373716049750  -0.436406520082
 C224   C  -0.354186614816  0.189877430169  0.126283950250
 C225   C  0.189877430169  0.126283950250  -0.354186614816
 C226   C  -0.145813385184  -0.019529434934  -0.455935955015
 C227   C  -0.019529434934  -0.455935955015  -0.145813385184
 C228   C  -0.436406520082  -0.480470565066  0.373716049750
 C229   C  0.436406520082  0.455935955015  -0.189877430169
 C230   C  0.145813385184  -0.373716049750  -0.310122569831
 C231   C  0.354186614816  0.044064044985  0.480470565066
 C232   C  0.063593479918  -0.126283950250  0.019529434934
 C233   C  0.455935955015  -0.189877430169  0.436406520082
 C234   C  -0.189877430169  0.436406520082  0.455935955015
 C235   C  -0.126283950250  0.019529434934  0.063593479918
 C236   C  -0.310122569831  0.145813385184  -0.373716049750
 C237   C  -0.373716049750  -0.310122569831  0.145813385184
 C238   C  0.480470565066  0.354186614816  0.044064044985
 C239   C  0.044064044985  0.480470565066  0.354186614816
 C240   C  0.019529434934  0.063593479918  -0.126283950250
 H241   H  0.005477498540  0.084925220824  0.340901633110
 H242   H  0.244023587714  -0.335424134569  0.159098366890
 H243   H  0.494522501460  -0.164575865431  0.079447722284
 H244   H  0.255976412286  0.415074779176  0.420552277716
 H245   H  0.340901633110  0.005477498540  0.084925220824
 H246   H  0.084925220824  0.340901633110  0.005477498540
 H247   H  0.420552277716  0.255976412286  0.415074779176
 H248   H  -0.335424134569  0.159098366890  0.244023587714
 H249   H  0.159098366890  0.244023587714  -0.335424134569
 H250   H  -0.164575865431  0.079447722284  0.494522501460
 H251   H  0.079447722284  0.494522501460  -0.164575865431
 H252   H  0.415074779176  0.420552277716  0.255976412286
 H253   H  -0.415074779176  -0.494522501460  -0.159098366890
 H254   H  0.164575865431  -0.255976412286  -0.340901633110
 H255   H  0.335424134569  -0.005477498540  -0.420552277716
 H256   H  -0.084925220824  -0.244023587714  -0.079447722284
 H257   H  -0.494522501460  -0.159098366890  -0.415074779176
 H258   H  -0.159098366890  -0.415074779176  -0.494522501460
 H259   H  -0.244023587714  -0.079447722284  -0.084925220824
 H260   H  -0.340901633110  0.164575865431  -0.255976412286
 H261   H  -0.255976412286  -0.340901633110  0.164575865431
 H262   H  -0.420552277716  0.335424134569  -0.005477498540
 H263   H  -0.005477498540  -0.420552277716  0.335424134569
 H264   H  -0.079447722284  -0.084925220824  -0.244023587714
 C265   C  -0.062254612682  0.029909130987  0.311867538946
 C266   C  0.218041592042  -0.374122151628  0.188132461054
 C267   C  -0.437745387318  -0.125877848372  0.092163743669
 C268   C  0.281958407959  0.470090869013  0.407836256331
 C269   C  0.311867538946  -0.062254612682  0.029909130987
 C270   C  0.029909130987  0.311867538946  -0.062254612682
 C271   C  0.407836256331  0.281958407959  0.470090869013
 C272   C  -0.374122151628  0.188132461054  0.218041592042
 C273   C  0.188132461054  0.218041592042  -0.374122151628
 C274   C  -0.125877848372  0.092163743669  -0.437745387318
 C275   C  0.092163743669  -0.437745387318  -0.125877848372
 C276   C  0.470090869013  0.407836256331  0.281958407959
 C277   C  -0.470090869013  0.437745387318  -0.188132461054
 C278   C  0.125877848372  -0.281958407959  -0.311867538946
 C279   C  0.374122151628  0.062254612682  -0.407836256331
 C280   C  -0.029909130987  -0.218041592042  -0.092163743669
 C281   C  0.437745387318  -0.188132461054  -0.470090869013
 C282   C  -0.188132461054  -0.470090869013  0.437745387318
 C283   C  -0.218041592042  -0.092163743669  -0.029909130987
 C284   C  -0.311867538946  0.125877848372  -0.281958407959
 C285   C  -0.281958407959  -0.311867538946  0.125877848372
 C286   C  -0.407836256331  0.374122151628  0.062254612682
 C287   C  0.062254612682  -0.407836256331  0.374122151628
 C288   C  -0.092163743669  -0.029909130987  -0.218041592042
 C289   C  -0.011825535580  0.065077288397  0.385968866114
 C290   C  0.179108422283  -0.397794401695  0.114031133886
 C291   C  -0.488174464420  -0.102205598305  0.076902823978
 C292   C  0.320891577717  0.434922711603  0.423097176022
 C293   C  0.385968866114  -0.011825535580  0.065077288397
 C294   C  0.065077288397  0.385968866114  -0.011825535580
 C295   C  0.423097176022  0.320891577717  0.434922711603
 C296   C  -0.397794401695  0.114031133886  0.179108422283
 C297   C  0.114031133886  0.179108422283  -0.397794401695
 C298   C  -0.102205598305  0.076902823978  -0.488174464420
 C299   C  0.076902823978  -0.488174464420  -0.102205598305
 C300   C  0.434922711603  0.423097176022  0.320891577717
 C301   C  -0.434922711603  0.488174464420  -0.114031133886
 C302   C  0.102205598305  -0.320891577717  -0.385968866114
 C303   C  0.397794401695  0.011825535580  -0.423097176022
 C304   C  -0.065077288397  -0.179108422283  -0.076902823978
 C305   C  0.488174464420  -0.114031133886  -0.434922711603
 C306   C  -0.114031133886  -0.434922711603  0.488174464420
 C307   C  -0.179108422283  -0.076902823978  -0.065077288397
 C308   C  -0.385968866114  0.102205598305  -0.320891577717
 C309   C  -0.320891577717  -0.385968866114  0.102205598305
 C310   C  -0.423097176022  0.397794401695  0.011825535580
 C311   C  0.011825535580  -0.423097176022  0.397794401695
 C312   C  -0.076902823978  -0.065077288397  -0.179108422283
 C313   C  -0.018659741803  0.063831078403  0.345491962826
 C314   C  0.218339115577  -0.364151704630  0.154508037174
 C315   C  -0.481340258197  -0.135848295370  0.082490820207
 C316   C  0.281660884423  0.436168921597  0.417509179793
 C317   C  0.345491962826  -0.018659741803  0.063831078403
 C318   C  0.063831078403  0.345491962826  -0.018659741803
 C319   C  0.417509179793  0.281660884423  0.436168921597
 C320   C  -0.364151704630  0.154508037174  0.218339115577
 C321   C  0.154508037174  0.218339115577  -0.364151704630
 C322   C  -0.135848295370  0.082490820207  -0.481340258197
 C323   C  0.082490820207  -0.481340258197  -0.135848295370
 C324   C  0.436168921597  0.417509179793  0.281660884423
 C325   C  -0.436168921597  0.481340258197  -0.154508037174
 C326   C  0.135848295370  -0.281660884423  -0.345491962826
 C327   C  0.364151704630  0.018659741803  -0.417509179793
 C328   C  -0.063831078403  -0.218339115577  -0.082490820207
 C329   C  0.481340258197  -0.154508037174  -0.436168921597
 C330   C  -0.154508037174  -0.436168921597  0.481340258197
 C331   C  -0.218339115577  -0.082490820207  -0.063831078403
 C332   C  -0.345491962826  0.135848295370  -0.281660884423
 C333   C  -0.281660884423  -0.345491962826  0.135848295370
 C334   C  -0.417509179793  0.364151704630  0.018659741803
 C335   C  0.018659741803  -0.417509179793  0.364151704630
 C336   C  -0.082490820207  -0.063831078403  -0.218339115577
 H337   H  -0.077500622235  0.021249226006  0.277630189438
 H338   H  0.243619036568  -0.355130811673  0.222369810562
 H339   H  -0.422499377765  -0.144869188327  0.098749848241
 H340   H  0.256380963432  0.478750773994  0.401250151759
 H341   H  0.277630189438  -0.077500622235  0.021249226006
 H342   H  0.021249226006  0.277630189438  -0.077500622235
 H343   H  0.401250151759  0.256380963432  0.478750773994
 H344   H  -0.355130811673  0.222369810562  0.243619036568
 H345   H  0.222369810562  0.243619036568  -0.355130811673
 H346   H  -0.144869188327  0.098749848241  -0.422499377765
 H347   H  0.098749848241  -0.422499377765  -0.144869188327
 H348   H  0.478750773994  0.401250151759  0.256380963432
 H349   H  -0.478750773994  0.422499377765  -0.222369810562
 H350   H  0.144869188327  -0.256380963432  -0.277630189438
 H351   H  0.355130811673  0.077500622235  -0.401250151759
 H352   H  -0.021249226006  -0.243619036568  -0.098749848241
 H353   H  0.422499377765  -0.222369810562  -0.478750773994
 H354   H  -0.222369810562  -0.478750773994  0.422499377765
 H355   H  -0.243619036568  -0.098749848241  -0.021249226006
 H356   H  -0.277630189438  0.144869188327  -0.256380963432
 H357   H  -0.256380963432  -0.277630189438  0.144869188327
 H358   H  -0.401250151759  0.355130811673  0.077500622235
 H359   H  0.077500622235  -0.401250151759  0.355130811673
 H360   H  -0.098749848241  -0.021249226006  -0.243619036568
 H361   H  0.048849917420  0.015617072718  0.404608571270
 H362   H  0.111008501448  -0.355758653850  0.095391428730
 H363   H  0.451150082580  -0.144241346150  -0.033232844702
 H364   H  0.388991498552  0.484382927282  -0.466767155298
 H365   H  0.404608571270  0.048849917420  0.015617072718
 H366   H  0.015617072718  0.404608571270  0.048849917420
 H367   H  -0.466767155298  0.388991498552  0.484382927282
 H368   H  -0.355758653850  0.095391428730  0.111008501448
 H369   H  0.095391428730  0.111008501448  -0.355758653850
 H370   H  -0.144241346150  -0.033232844702  0.451150082580
 H371   H  -0.033232844702  0.451150082580  -0.144241346150
 H372   H  0.484382927282  -0.466767155298  0.388991498552
 H373   H  -0.484382927282  -0.451150082580  -0.095391428730
 H374   H  0.144241346150  -0.388991498552  -0.404608571270
 H375   H  0.355758653850  -0.048849917420  0.466767155298
 H376   H  -0.015617072718  -0.111008501448  0.033232844702
 H377   H  -0.451150082580  -0.095391428730  -0.484382927282
 H378   H  -0.095391428730  -0.484382927282  -0.451150082580
 H379   H  -0.111008501448  0.033232844702  -0.015617072718
 H380   H  -0.404608571270  0.144241346150  -0.388991498552
 H381   H  -0.388991498552  -0.404608571270  0.144241346150
 H382   H  0.466767155298  0.355758653850  -0.048849917420
 H383   H  -0.048849917420  0.466767155298  0.355758653850
 H384   H  0.033232844702  -0.015617072718  -0.111008501448
 O385   O  0.014232421711  0.060433669931  0.470148048803
 O386   O  0.090285621128  -0.455915627092  0.029851951197
 O387   O  0.485767578289  -0.044084372908  0.046201248219
 O388   O  0.409714378872  0.439566330069  0.453798751780
 O389   O  0.470148048803  0.014232421711  0.060433669931
 O390   O  0.060433669931  0.470148048803  0.014232421711
 O391   O  0.453798751780  0.409714378872  0.439566330069
 O392   O  -0.455915627092  0.029851951197  0.090285621128
 O393   O  0.029851951197  0.090285621128  -0.455915627092
 O394   O  -0.044084372908  0.046201248219  0.485767578289
 O395   O  0.046201248219  0.485767578289  -0.044084372908
 O396   O  0.439566330069  0.453798751780  0.409714378872
 O397   O  -0.439566330069  -0.485767578289  -0.029851951197
 O398   O  0.044084372908  -0.409714378872  -0.470148048803
 O399   O  0.455915627092  -0.014232421711  -0.453798751780
 O400   O  -0.060433669931  -0.090285621128  -0.046201248219
 O401   O  -0.485767578289  -0.029851951197  -0.439566330069
 O402   O  -0.029851951197  -0.439566330069  -0.485767578289
 O403   O  -0.090285621128  -0.046201248219  -0.060433669931
 O404   O  -0.470148048803  0.044084372908  -0.409714378872
 O405   O  -0.409714378872  -0.470148048803  0.044084372908
 O406   O  -0.453798751780  0.455915627092  -0.014232421711
 O407   O  -0.014232421711  -0.453798751780  0.455915627092
 O408   O  -0.046201248219  -0.060433669931  -0.090285621128
 H409   H  -0.159372165708  -0.090576333176  0.167972158209
 H410   H  0.241451508616  -0.327344323916  0.332027841791
 H411   H  -0.340627834292  -0.172655676084  0.068795832532
 H412   H  0.258548491384  -0.409423666824  0.431204167468
 H413   H  0.167972158209  -0.159372165708  -0.090576333176
 H414   H  -0.090576333176  0.167972158209  -0.159372165708
 H415   H  0.431204167468  0.258548491384  -0.409423666824
 H416   H  -0.327344323916  0.332027841791  0.241451508616
 H417   H  0.332027841791  0.241451508616  -0.327344323916
 H418   H  -0.172655676084  0.068795832532  -0.340627834292
 H419   H  0.068795832532  -0.340627834292  -0.172655676084
 H420   H  -0.409423666824  0.431204167468  0.258548491384
 H421   H  0.409423666824  0.340627834292  -0.332027841791
 H422   H  0.172655676084  -0.258548491384  -0.167972158209
 H423   H  0.327344323916  0.159372165708  -0.431204167468
 H424   H  0.090576333176  -0.241451508616  -0.068795832532
 H425   H  0.340627834292  -0.332027841791  0.409423666824
 H426   H  -0.332027841791  0.409423666824  0.340627834292
 H427   H  -0.241451508616  -0.068795832532  0.090576333176
 H428   H  -0.167972158209  0.172655676084  -0.258548491384
 H429   H  -0.258548491384  -0.167972158209  0.172655676084
 H430   H  -0.431204167468  0.327344323916  0.159372165708
 H431   H  0.159372165708  -0.431204167468  0.327344323916
 H432   H  -0.068795832532  0.090576333176  -0.241451508616
 H433   H  -0.167522043131  -0.065734121192  0.328773769428
 H434   H  0.105492109380  -0.496295812560  0.171226230572
 H435   H  -0.332477956869  -0.003704187441  0.101787921940
 H436   H  0.394507890620  -0.434265878808  0.398212078060
 H437   H  0.328773769428  -0.167522043131  -0.065734121192
 H438   H  -0.065734121192  0.328773769428  -0.167522043131
 H439   H  0.398212078060  0.394507890620  -0.434265878808
 H440   H  -0.496295812560  0.171226230572  0.105492109380
 H441   H  0.171226230572  0.105492109380  -0.496295812560
 H442   H  -0.003704187441  0.101787921940  -0.332477956869
 H443   H  0.101787921940  -0.332477956869  -0.003704187441
 H444   H  -0.434265878808  0.398212078060  0.394507890620
 H445   H  0.434265878808  0.332477956869  -0.171226230572
 H446   H  0.003704187441  -0.394507890620  -0.328773769428
 H447   H  0.496295812560  0.167522043131  -0.398212078060
 H448   H  0.065734121192  -0.105492109380  -0.101787921940
 H449   H  0.332477956869  -0.171226230572  0.434265878808
 H450   H  -0.171226230572  0.434265878808  0.332477956869
 H451   H  -0.105492109380  -0.101787921940  0.065734121192
 H452   H  -0.328773769428  0.003704187441  -0.394507890620
 H453   H  -0.394507890620  -0.328773769428  0.003704187441
 H454   H  -0.398212078060  0.496295812560  0.167522043131
 H455   H  0.167522043131  -0.398212078060  0.496295812560
 H456   H  -0.101787921940  0.065734121192  -0.105492109380
 C457   C  -0.018744181561  -0.042568700269  0.356534198665
 C458   C  0.100897101067  -0.375278380226  0.143465801335
 C459   C  -0.481255818439  -0.124721619774  -0.023824518707
 C460   C  0.399102898933  -0.457431299731  -0.476175481293
 C461   C  0.356534198665  -0.018744181561  -0.042568700269
 C462   C  -0.042568700269  0.356534198665  -0.018744181561
 C463   C  -0.476175481293  0.399102898933  -0.457431299731
 C464   C  -0.375278380226  0.143465801335  0.100897101067
 C465   C  0.143465801335  0.100897101067  -0.375278380226
 C466   C  -0.124721619774  -0.023824518707  -0.481255818439
 C467   C  -0.023824518707  -0.481255818439  -0.124721619774
 C468   C  -0.457431299731  -0.476175481293  0.399102898933
 C469   C  0.457431299731  0.481255818439  -0.143465801335
 C470   C  0.124721619774  -0.399102898933  -0.356534198665
 C471   C  0.375278380226  0.018744181561  0.476175481293
 C472   C  0.042568700269  -0.100897101067  0.023824518707
 C473   C  0.481255818439  -0.143465801335  0.457431299731
 C474   C  -0.143465801335  0.457431299731  0.481255818439
 C475   C  -0.100897101067  0.023824518707  0.042568700269
 C476   C  -0.356534198665  0.124721619774  -0.399102898933
 C477   C  -0.399102898933  -0.356534198665  0.124721619774
 C478   C  0.476175481293  0.375278380226  0.018744181561
 C479   C  0.018744181561  0.476175481293  0.375278380226
 C480   C  0.023824518707  0.042568700269  -0.100897101067
 H481   H  -0.265654835146  -0.100029786050  0.192743699379
 H482   H  0.207226514571  -0.458398534525  0.307256300621
 H483   H  -0.234345164854  -0.041601465475  0.165625049096
 H484   H  0.292773485429  -0.399970213950  0.334374950904
 H485   H  0.192743699379  -0.265654835146  -0.100029786050
 H486   H  -0.100029786050  0.192743699379  -0.265654835146
 H487   H  0.334374950904  0.292773485429  -0.399970213950
 H488   H  -0.458398534525  0.307256300621  0.207226514571
 H489   H  0.307256300621  0.207226514571  -0.458398534525
 H490   H  -0.041601465475  0.165625049096  -0.234345164854
 H491   H  0.165625049096  -0.234345164854  -0.041601465475
 H492   H  -0.399970213950  0.334374950904  0.292773485429
 H493   H  0.399970213950  0.234345164854  -0.307256300621
 H494   H  0.041601465475  -0.292773485429  -0.192743699379
 H495   H  0.458398534525  0.265654835146  -0.334374950904
 H496   H  0.100029786050  -0.207226514571  -0.165625049096
 H497   H  0.234345164854  -0.307256300621  0.399970213950
 H498   H  -0.307256300621  0.399970213950  0.234345164854
 H499   H  -0.207226514571  -0.165625049096  0.100029786050
 H500   H  -0.192743699379  0.041601465475  -0.292773485429
 H501   H  -0.292773485429  -0.192743699379  0.041601465475
 H502   H  -0.334374950904  0.458398534525  0.265654835146
 H503   H  0.265654835146  -0.334374950904  0.458398534525
 H504   H  -0.165625049096  0.100029786050  -0.207226514571
 H505   H  -0.213600697328  -0.058486745512  0.272700112033
 H506   H  0.168813142456  -0.486300809361  0.227299887967
 H507   H  -0.286399302672  -0.013699190640  0.155113951816
 H508   H  0.331186857544  -0.441513254488  0.344886048184
 H509   H  0.272700112033  -0.213600697328  -0.058486745512
 H510   H  -0.058486745512  0.272700112033  -0.213600697328
 H511   H  0.344886048184  0.331186857544  -0.441513254488
 H512   H  -0.486300809361  0.227299887967  0.168813142456
 H513   H  0.227299887967  0.168813142456  -0.486300809361
 H514   H  -0.013699190640  0.155113951816  -0.286399302672
 H515   H  0.155113951816  -0.286399302672  -0.013699190640
 H516   H  -0.441513254488  0.344886048184  0.331186857544
 H517   H  0.441513254488  0.286399302672  -0.227299887967
 H518   H  0.013699190640  -0.331186857544  -0.272700112033
 H519   H  0.486300809361  0.213600697328  -0.344886048184
 H520   H  0.058486745512  -0.168813142456  -0.155113951816
 H521   H  0.286399302672  -0.227299887967  0.441513254488
 H522   H  -0.227299887967  0.441513254488  0.286399302672
 H523   H  -0.168813142456  -0.155113951816  0.058486745512
 H524   H  -0.272700112033  0.013699190640  -0.331186857544
 H525   H  -0.331186857544  -0.272700112033  0.013699190640
 H526   H  -0.344886048184  0.486300809361  0.213600697328
 H527   H  0.213600697328  -0.344886048184  0.486300809361
 H528   H  -0.155113951816  0.058486745512  -0.168813142456
 H529   H  -0.115101024975  -0.024712450099  0.408771750847
 H530   H  0.066515799053  0.476127224178  0.091228249153
 H531   H  -0.384898975025  0.023872775822  0.090388574875
 H532   H  0.433484200947  -0.475287549901  0.409611425125
 H533   H  0.408771750847  -0.115101024975  -0.024712450099
 H534   H  -0.024712450099  0.408771750847  -0.115101024975
 H535   H  0.409611425125  0.433484200947  -0.475287549901
 H536   H  0.476127224178  0.091228249153  0.066515799053
 H537   H  0.091228249153  0.066515799053  0.476127224178
 H538   H  0.023872775822  0.090388574875  -0.384898975025
 H539   H  0.090388574875  -0.384898975025  0.023872775822
 H540   H  -0.475287549901  0.409611425125  0.433484200947
 H541   H  0.475287549901  0.384898975025  -0.091228249153
 H542   H  -0.023872775822  -0.433484200947  -0.408771750847
 H543   H  -0.476127224178  0.115101024975  -0.409611425125
 H544   H  0.024712450099  -0.066515799053  -0.090388574875
 H545   H  0.384898975025  -0.091228249153  0.475287549901
 H546   H  -0.091228249153  0.475287549901  0.384898975025
 H547   H  -0.066515799053  -0.090388574875  0.024712450099
 H548   H  -0.408771750847  -0.023872775822  -0.433484200947
 H549   H  -0.433484200947  -0.408771750847  -0.023872775822
 H550   H  -0.409611425125  -0.476127224178  0.115101024975
 H551   H  0.115101024975  -0.409611425125  -0.476127224178
 H552   H  -0.090388574875  0.024712450099  -0.066515799053
 H553   H  -0.107745799815  -0.051142234199  0.247983653714
 H554   H  0.200874112086  -0.355729453529  0.252016346286
 H555   H  -0.392254200185  -0.144270546471  0.056603565615
 H556   H  0.299125887914  -0.448857765801  0.443396434385
 H557   H  0.247983653714  -0.107745799815  -0.051142234199
 H558   H  -0.051142234199  0.247983653714  -0.107745799815
 H559   H  0.443396434385  0.299125887914  -0.448857765801
 H560   H  -0.355729453529  0.252016346286  0.200874112086
 H561   H  0.252016346286  0.200874112086  -0.355729453529
 H562   H  -0.144270546471  0.056603565615  -0.392254200185
 H563   H  0.056603565615  -0.392254200185  -0.144270546471
 H564   H  -0.448857765801  0.443396434385  0.299125887914
 H565   H  0.448857765801  0.392254200185  -0.252016346286
 H566   H  0.144270546471  -0.299125887914  -0.247983653714
 H567   H  0.355729453529  0.107745799815  -0.443396434385
 H568   H  0.051142234199  -0.200874112086  -0.056603565615
 H569   H  0.392254200185  -0.252016346286  0.448857765801
 H570   H  -0.252016346286  0.448857765801  0.392254200185
 H571   H  -0.200874112086  -0.056603565615  0.051142234199
 H572   H  -0.247983653714  0.144270546471  -0.299125887914
 H573   H  -0.299125887914  -0.247983653714  0.144270546471
 H574   H  -0.443396434385  0.355729453529  0.107745799815
 H575   H  0.107745799815  -0.443396434385  0.355729453529
 H576   H  -0.056603565615  0.051142234199  -0.200874112086
 C577   C  -0.231006263175  -0.089987994574  0.204804135210
 C578   C  0.205207870216  -0.435810398384  0.295195864790
 C579   C  -0.268993736825  -0.064189601616  0.141018268601
 C580   C  0.294792129784  -0.410012005426  0.358981731399
 C581   C  0.204804135210  -0.231006263175  -0.089987994574
 C582   C  -0.089987994574  0.204804135210  -0.231006263175
 C583   C  0.358981731399  0.294792129784  -0.410012005426
 C584   C  -0.435810398384  0.295195864790  0.205207870216
 C585   C  0.295195864790  0.205207870216  -0.435810398384
 C586   C  -0.064189601616  0.141018268601  -0.268993736825
 C587   C  0.141018268601  -0.268993736825  -0.064189601616
 C588   C  -0.410012005426  0.358981731399  0.294792129784
 C589   C  0.410012005426  0.268993736825  -0.295195864790
 C590   C  0.064189601616  -0.294792129784  -0.204804135210
 C591   C  0.435810398384  0.231006263175  -0.358981731399
 C592   C  0.089987994574  -0.205207870216  -0.141018268601
 C593   C  0.268993736825  -0.295195864790  0.410012005426
 C594   C  -0.295195864790  0.410012005426  0.268993736825
 C595   C  -0.205207870216  -0.141018268601  0.089987994574
 C596   C  -0.204804135210  0.064189601616  -0.294792129784
 C597   C  -0.294792129784  -0.204804135210  0.064189601616
 C598   C  -0.358981731399  0.435810398384  0.231006263175
 C599   C  0.231006263175  -0.358981731399  0.435810398384
 C600   C  -0.141018268601  0.089987994574  -0.205207870216
 C601   C  -0.156827266764  -0.051665849513  0.266019738003
 C602   C  0.182314412484  -0.422847004767  0.233980261997
 C603   C  -0.343172733236  -0.077152995233  0.105161417251
 C604   C  0.317685587516  -0.448334150487  0.394838582749
 C605   C  0.266019738003  -0.156827266764  -0.051665849513
 C606   C  -0.051665849513  0.266019738003  -0.156827266764
 C607   C  0.394838582749  0.317685587516  -0.448334150487
 C608   C  -0.422847004767  0.233980261997  0.182314412484
 C609   C  0.233980261997  0.182314412484  -0.422847004767
 C610   C  -0.077152995233  0.105161417251  -0.343172733236
 C611   C  0.105161417251  -0.343172733236  -0.077152995233
 C612   C  -0.448334150487  0.394838582749  0.317685587516
 C613   C  0.448334150487  0.343172733236  -0.233980261997
 C614   C  0.077152995233  -0.317685587516  -0.266019738003
 C615   C  0.422847004767  0.156827266764  -0.394838582749
 C616   C  0.051665849513  -0.182314412484  -0.105161417251
 C617   C  0.343172733236  -0.233980261997  0.448334150487
 C618   C  -0.233980261997  0.448334150487  0.343172733236
 C619   C  -0.182314412484  -0.105161417251  0.051665849513
 C620   C  -0.266019738003  0.077152995233  -0.317685587516
 C621   C  -0.317685587516  -0.266019738003  0.077152995233
 C622   C  -0.394838582749  0.422847004767  0.156827266764
 C623   C  0.156827266764  -0.394838582749  0.422847004767
 C624   C  -0.105161417251  0.051665849513  -0.182314412484
 C625   C  -0.216526438903  -0.099169167934  0.174348827168
 C626   C  0.226482004898  -0.390875266071  0.325651172832
 C627   C  -0.283473561097  -0.109124733929  0.117357270969
 C628   C  0.273517995102  -0.400830832066  0.382642729031
 C629   C  0.174348827168  -0.216526438903  -0.099169167934
 C630   C  -0.099169167934  0.174348827168  -0.216526438903
 C631   C  0.382642729031  0.273517995102  -0.400830832066
 C632   C  -0.390875266071  0.325651172832  0.226482004898
 C633   C  0.325651172832  0.226482004898  -0.390875266071
 C634   C  -0.109124733929  0.117357270969  -0.283473561097
 C635   C  0.117357270969  -0.283473561097  -0.109124733929
 C636   C  -0.400830832066  0.382642729031  0.273517995102
 C637   C  0.400830832066  0.283473561097  -0.325651172832
 C638   C  0.109124733929  -0.273517995102  -0.174348827168
 C639   C  0.390875266071  0.216526438903  -0.382642729031
 C640   C  0.099169167934  -0.226482004898  -0.117357270969
 C641   C  0.283473561097  -0.325651172832  0.400830832066
 C642   C  -0.325651172832  0.400830832066  0.283473561097
 C643   C  -0.226482004898  -0.117357270969  0.099169167934
 C644   C  -0.174348827168  0.109124733929  -0.273517995102
 C645   C  -0.273517995102  -0.174348827168  0.109124733929
 C646   C  -0.382642729031  0.390875266071  0.216526438903
 C647   C  0.216526438903  -0.382642729031  0.390875266071
 C648   C  -0.117357270969  0.099169167934  -0.226482004898
 C649   C  -0.171761960651  -0.084548464269  0.190709126300
 C650   C  0.224742409431  -0.362471086951  0.309290873700
 C651   C  -0.328238039349  -0.137528913049  0.087213496381
 C652   C  0.275257590569  -0.415451535731  0.412786503619
 C653   C  0.190709126300  -0.171761960651  -0.084548464269
 C654   C  -0.084548464269  0.190709126300  -0.171761960651
 C655   C  0.412786503619  0.275257590569  -0.415451535731
 C656   C  -0.362471086951  0.309290873700  0.224742409431
 C657   C  0.309290873700  0.224742409431  -0.362471086951
 C658   C  -0.137528913049  0.087213496381  -0.328238039349
 C659   C  0.087213496381  -0.328238039349  -0.137528913049
 C660   C  -0.415451535731  0.412786503619  0.275257590569
 C661   C  0.415451535731  0.328238039349  -0.309290873700
 C662   C  0.137528913049  -0.275257590569  -0.190709126300
 C663   C  0.362471086951  0.171761960651  -0.412786503619
 C664   C  0.084548464269  -0.224742409431  -0.087213496381
 C665   C  0.328238039349  -0.309290873700  0.415451535731
 C666   C  -0.309290873700  0.415451535731  0.328238039349
 C667   C  -0.224742409431  -0.087213496381  0.084548464269
 C668   C  -0.190709126300  0.137528913049  -0.275257590569
 C669   C  -0.275257590569  -0.190709126300  0.137528913049
 C670   C  -0.412786503619  0.362471086951  0.171761960651
 C671   C  0.171761960651  -0.412786503619  0.362471086951
 C672   C  -0.087213496381  0.084548464269  -0.224742409431
 C673   C  -0.063485917965  0.019612805322  0.406271210415
 C674   C  0.113341594908  -0.469757128380  0.093728789585
 C675   C  -0.436514082035  -0.030242871620  0.083098723287
 C676   C  0.386658405092  0.480387194678  0.416901276713
 C677   C  0.406271210415  -0.063485917965  0.019612805322
 C678   C  0.019612805322  0.406271210415  -0.063485917965
 C679   C  0.416901276713  0.386658405092  0.480387194678
 C680   C  -0.469757128380  0.093728789585  0.113341594908
 C681   C  0.093728789585  0.113341594908  -0.469757128380
 C682   C  -0.030242871620  0.083098723287  -0.436514082035
 C683   C  0.083098723287  -0.436514082035  -0.030242871620
 C684   C  0.480387194678  0.416901276713  0.386658405092
 C685   C  -0.480387194678  0.436514082035  -0.093728789585
 C686   C  0.030242871620  -0.386658405092  -0.406271210415
 C687   C  0.469757128380  0.063485917965  -0.416901276713
 C688   C  -0.019612805322  -0.113341594908  -0.083098723287
 C689   C  0.436514082035  -0.093728789585  -0.480387194678
 C690   C  -0.093728789585  -0.480387194678  0.436514082035
 C691   C  -0.113341594908  -0.083098723287  -0.019612805322
 C692   C  -0.406271210415  0.030242871620  -0.386658405092
 C693   C  -0.386658405092  -0.406271210415  0.030242871620
 C694   C  -0.416901276713  0.469757128380  0.063485917965
 C695   C  0.063485917965  -0.416901276713  0.469757128380
 C696   C  -0.083098723287  -0.019612805322  -0.113341594908
 C697   C  -0.083602394873  0.010941402014  0.331823054966
 C698   C  0.179118347048  -0.415425449838  0.168176945034
 C699   C  -0.416397605128  -0.084574550162  0.094543796887
 C700   C  0.320881652952  0.489058597986  0.405456203113
 C701   C  0.331823054966  -0.083602394873  0.010941402014
 C702   C  0.010941402014  0.331823054966  -0.083602394873
 C703   C  0.405456203113  0.320881652952  0.489058597986
 C704   C  -0.415425449838  0.168176945034  0.179118347048
 C705   C  0.168176945034  0.179118347048  -0.415425449838
 C706   C  -0.084574550162  0.094543796887  -0.416397605128
 C707   C  0.094543796887  -0.416397605128  -0.084574550162
 C708   C  0.489058597986  0.405456203113  0.320881652952
 C709   C  -0.489058597986  0.416397605128  -0.168176945034
 C710   C  0.084574550162  -0.320881652952  -0.331823054966
 C711   C  0.415425449838  0.083602394873  -0.405456203113
 C712   C  -0.010941402014  -0.179118347048  -0.094543796887
 C713   C  0.416397605128  -0.168176945034  -0.489058597986
 C714   C  -0.168176945034  -0.489058597986  0.416397605128
 C715   C  -0.179118347048  -0.094543796887  -0.010941402014
 C716   C  -0.331823054966  0.084574550162  -0.320881652952
 C717   C  -0.320881652952  -0.331823054966  0.084574550162
 C718   C  -0.405456203113  0.415425449838  0.083602394873
 C719   C  0.083602394873  -0.405456203113  0.415425449838
 C720   C  -0.094543796887  -0.010941402014  -0.179118347048
 C721   C  -0.201815945334  -0.066714006729  0.249696601949
 C722   C  0.183589391322  -0.451512547283  0.250303398051
 C723   C  -0.298184054666  -0.048487452717  0.135101938605
 C724   C  0.316410608678  -0.433285993271  0.364898061395
 C725   C  0.249696601949  -0.201815945334  -0.066714006729
 C726   C  -0.066714006729  0.249696601949  -0.201815945334
 C727   C  0.364898061395  0.316410608678  -0.433285993271
 C728   C  -0.451512547283  0.250303398051  0.183589391322
 C729   C  0.250303398051  0.183589391322  -0.451512547283
 C730   C  -0.048487452717  0.135101938605  -0.298184054666
 C731   C  0.135101938605  -0.298184054666  -0.048487452717
 C732   C  -0.433285993271  0.364898061395  0.316410608678
 C733   C  0.433285993271  0.298184054666  -0.250303398051
 C734   C  0.048487452717  -0.316410608678  -0.249696601949
 C735   C  0.451512547283  0.201815945334  -0.364898061395
 C736   C  0.066714006729  -0.183589391322  -0.135101938605
 C737   C  0.298184054666  -0.250303398051  0.433285993271
 C738   C  -0.250303398051  0.433285993271  0.298184054666
 C739   C  -0.183589391322  -0.135101938605  0.066714006729
 C740   C  -0.249696601949  0.048487452717  -0.316410608678
 C741   C  -0.316410608678  -0.249696601949  0.048487452717
 C742   C  -0.364898061395  0.451512547283  0.201815945334
 C743   C  0.201815945334  -0.364898061395  0.451512547283
 C744   C  -0.135101938605  0.066714006729  -0.183589391322
 C745   C  -0.125597643235  -0.026263284123  0.313579495695
 C746   C  0.160157220182  -0.439177138931  0.186420504304
 C747   C  -0.374402356765  -0.060822861069  0.099334359113
 C748   C  0.339842779818  -0.473736715877  0.400665640887
 C749   C  0.313579495695  -0.125597643235  -0.026263284123
 C750   C  -0.026263284123  0.313579495695  -0.125597643235
 C751   C  0.400665640887  0.339842779818  -0.473736715877
 C752   C  -0.439177138931  0.186420504304  0.160157220182
 C753   C  0.186420504304  0.160157220182  -0.439177138931
 C754   C  -0.060822861069  0.099334359113  -0.374402356765
 C755   C  0.099334359113  -0.374402356765  -0.060822861069
 C756   C  -0.473736715877  0.400665640887  0.339842779818
 C757   C  0.473736715877  0.374402356765  -0.186420504304
 C758   C  0.060822861069  -0.339842779818  -0.313579495695
 C759   C  0.439177138931  0.125597643235  -0.400665640887
 C760   C  0.026263284123  -0.160157220182  -0.099334359113
 C761   C  0.374402356765  -0.186420504304  0.473736715877
 C762   C  -0.186420504304  0.473736715877  0.374402356765
 C763   C  -0.160157220182  -0.099334359113  0.026263284123
 C764   C  -0.313579495695  0.060822861069  -0.339842779818
 C765   C  -0.339842779818  -0.313579495695  0.060822861069
 C766   C  -0.400665640887  0.439177138931  0.125597643235
 C767   C  0.125597643235  -0.400665640887  0.439177138931
 C768   C  -0.099334359113  0.026263284123  -0.160157220182
 C769   C  -0.142483274972  -0.061540941586  0.235674530573
 C770   C  0.202784527841  -0.378157805544  0.264325469427
 C771   C  -0.357516725028  -0.121842194456  0.080942333385
 C772   C  0.297215472159  -0.438459058414  0.419057666615
 C773   C  0.235674530573  -0.142483274972  -0.061540941586
 C774   C  -0.061540941586  0.235674530573  -0.142483274972
 C775   C  0.419057666615  0.297215472159  -0.438459058414
 C776   C  -0.378157805544  0.264325469427  0.202784527841
 C777   C  0.264325469427  0.202784527841  -0.378157805544
 C778   C  -0.121842194456  0.080942333385  -0.357516725028
 C779   C  0.080942333385  -0.357516725028  -0.121842194456
 C780   C  -0.438459058414  0.419057666615  0.297215472159
 C781   C  0.438459058414  0.357516725028  -0.264325469427
 C782   C  0.121842194456  -0.297215472159  -0.235674530573
 C783   C  0.378157805544  0.142483274972  -0.419057666615
 C784   C  0.061540941586  -0.202784527841  -0.080942333385
 C785   C  0.357516725028  -0.264325469427  0.438459058414
 C786   C  -0.264325469427  0.438459058414  0.357516725028
 C787   C  -0.202784527841  -0.080942333385  0.061540941586
 C788   C  -0.235674530573  0.121842194456  -0.297215472159
 C789   C  -0.297215472159  -0.235674530573  0.121842194456
 C790   C  -0.419057666615  0.378157805544  0.142483274972
 C791   C  0.142483274972  -0.419057666615  0.378157805544
 C792   C  -0.080942333385  0.061540941586  -0.202784527841
 C793   C  -0.105567759587  -0.014315175616  0.387707747330
 C794   C  0.097977077054  -0.493275506917  0.112292252670
 C795   C  -0.394432240413  -0.006724493083  0.091252583971
 C796   C  0.402022922946  -0.485684824384  0.408747416029
 C797   C  0.387707747330  -0.105567759587  -0.014315175616
 C798   C  -0.014315175616  0.387707747330  -0.105567759587
 C799   C  0.408747416029  0.402022922946  -0.485684824384
 C800   C  -0.493275506917  0.112292252670  0.097977077054
 C801   C  0.112292252670  0.097977077054  -0.493275506917
 C802   C  -0.006724493083  0.091252583971  -0.394432240413
 C803   C  0.091252583971  -0.394432240413  -0.006724493083
 C804   C  -0.485684824384  0.408747416029  0.402022922946
 C805   C  0.485684824384  0.394432240413  -0.112292252670
 C806   C  0.006724493083  -0.402022922946  -0.387707747330
 C807   C  0.493275506917  0.105567759587  -0.408747416029
 C808   C  0.014315175616  -0.097977077054  -0.091252583971
 C809   C  0.394432240413  -0.112292252670  0.485684824384
 C810   C  -0.112292252670  0.485684824384  0.394432240413
 C811   C  -0.097977077054  -0.091252583971  0.014315175616
 C812   C  -0.387707747330  0.006724493083  -0.402022922946
 C813   C  -0.402022922946  -0.387707747330  0.006724493083
 C814   C  -0.408747416029  0.493275506917  0.105567759587
 C815   C  0.105567759587  -0.408747416029  0.493275506917
 C816   C  -0.091252583971  0.014315175616  -0.097977077054
 C817   C  -0.052353545153  0.033088803206  0.377957954680
 C818   C  0.155130848526  -0.430311499832  0.122042045320
 C819   C  -0.447646454847  -0.069688500168  0.085442348359
 C820   C  0.344869151474  0.466911196794  0.414557651641
 C821   C  0.377957954680  -0.052353545153  0.033088803206
 C822   C  0.033088803206  0.377957954680  -0.052353545153
 C823   C  0.414557651641  0.344869151474  0.466911196794
 C824   C  -0.430311499832  0.122042045320  0.155130848526
 C825   C  0.122042045320  0.155130848526  -0.430311499832
 C826   C  -0.069688500168  0.085442348359  -0.447646454847
 C827   C  0.085442348359  -0.447646454847  -0.069688500168
 C828   C  0.466911196794  0.414557651641  0.344869151474
 C829   C  -0.466911196794  0.447646454847  -0.122042045320
 C830   C  0.069688500168  -0.344869151474  -0.377957954680
 C831   C  0.430311499832  0.052353545153  -0.414557651641
 C832   C  -0.033088803206  -0.155130848526  -0.085442348359
 C833   C  0.447646454847  -0.122042045320  -0.466911196794
 C834   C  -0.122042045320  -0.466911196794  0.447646454847
 C835   C  -0.155130848526  -0.085442348359  -0.033088803206
 C836   C  -0.377957954680  0.069688500168  -0.344869151474
 C837   C  -0.344869151474  -0.377957954680  0.069688500168
 C838   C  -0.414557651641  0.430311499832  0.052353545153
 C839   C  0.052353545153  -0.414557651641  0.430311499832
 C840   C  -0.085442348359  -0.033088803206  -0.155130848526
 B841   B  -0.030216082447  0.042200689128  0.455393313911
 B842   B  0.086807375216  -0.485609396358  0.044606686089
 B843   B  -0.469783917553  -0.014390603642  0.072416771575
 B844   B  0.413192624783  0.457799310872  0.427583228426
 B845   B  0.455393313911  -0.030216082447  0.042200689128
 B846   B  0.042200689128  0.455393313911  -0.030216082447
 B847   B  0.427583228426  0.413192624783  0.457799310872
 B848   B  -0.485609396358  0.044606686089  0.086807375216
 B849   B  0.044606686089  0.086807375216  -0.485609396358
 B850   B  -0.014390603642  0.072416771575  -0.469783917553
 B851   B  0.072416771575  -0.469783917553  -0.014390603642
 B852   B  0.457799310872  0.427583228426  0.413192624783
 B853   B  -0.457799310872  0.469783917553  -0.044606686089
 B854   B  0.014390603642  -0.413192624783  -0.455393313911
 B855   B  0.485609396358  0.030216082447  -0.427583228426
 B856   B  -0.042200689128  -0.086807375216  -0.072416771575
 B857   B  0.469783917553  -0.044606686089  -0.457799310872
 B858   B  -0.044606686089  -0.457799310872  0.469783917553
 B859   B  -0.086807375216  -0.072416771575  -0.042200689128
 B860   B  -0.455393313911  0.014390603642  -0.413192624783
 B861   B  -0.413192624783  -0.455393313911  0.014390603642
 B862   B  -0.427583228426  0.485609396358  0.030216082447
 B863   B  0.030216082447  -0.427583228426  0.485609396358
 B864   B  -0.072416771575  -0.042200689128  -0.086807375216
 C865   C  -0.135840200601  -0.037256517591  0.342199440676
 C866   C  0.120544041732  -0.478039641277  0.157800559324
 C867   C  -0.364159799399  -0.021960358722  0.098583683010
 C868   C  0.379455958268  -0.462743482409  0.401416316990
 C869   C  0.342199440676  -0.135840200601  -0.037256517591
 C870   C  -0.037256517591  0.342199440676  -0.135840200601
 C871   C  0.401416316990  0.379455958268  -0.462743482409
 C872   C  -0.478039641277  0.157800559324  0.120544041732
 C873   C  0.157800559324  0.120544041732  -0.478039641277
 C874   C  -0.021960358722  0.098583683010  -0.364159799399
 C875   C  0.098583683010  -0.364159799399  -0.021960358722
 C876   C  -0.462743482409  0.401416316990  0.379455958268
 C877   C  0.462743482409  0.364159799399  -0.157800559324
 C878   C  0.021960358722  -0.379455958268  -0.342199440676
 C879   C  0.478039641277  0.135840200601  -0.401416316990
 C880   C  0.037256517591  -0.120544041732  -0.098583683010
 C881   C  0.364159799399  -0.157800559324  0.462743482409
 C882   C  -0.157800559324  0.462743482409  0.364159799399
 C883   C  -0.120544041732  -0.098583683010  0.037256517591
 C884   C  -0.342199440676  0.021960358722  -0.379455958268
 C885   C  -0.379455958268  -0.342199440676  0.021960358722
 C886   C  -0.401416316990  0.478039641277  0.135840200601
 C887   C  0.135840200601  -0.401416316990  0.478039641277
 C888   C  -0.098583683010  0.037256517591  -0.120544041732
 C889   C  -0.375000000000  0.375000000000  0.250000000000
 C890   C  -0.125000000000  0.125000000000  -0.250000000000
 C891   C  0.250000000000  -0.375000000000  0.375000000000
 C892   C  0.375000000000  0.250000000000  -0.375000000000
 C893   C  -0.250000000000  -0.125000000000  0.125000000000
 C894   C  0.125000000000  -0.250000000000  -0.125000000000
