data_Staggered_MSUCOF-4-NiCp_BULK_OPTGEOM_DZ_optimized.outout

_cell_length_a                         34.17551779
_cell_length_b                         34.17551779
_cell_length_c                         34.17551779
_cell_angle_alpha                      109.47122100
_cell_angle_beta                       109.47122100
_cell_angle_gamma                      109.47122100
_symmetry_space_group_name_H-M         'P 1'
_symmetry_Int_Tables_number            1

loop_
_symmetry_equiv_pos_as_xyz
   'x, y, z'

loop_
   _atom_site_label
   _atom_site_type_symbol
   _atom_site_fract_x
   _atom_site_fract_y
   _atom_site_fract_z
 H001   H  0.086078437318  0.056589721671  0.431796013708
 H002   H  0.124793707963  -0.345717576390  0.068203986292
 H003   H  0.413921562682  -0.154282423610  -0.029488715647
 H004   H  0.375206292037  0.443410278329  -0.470511284353
 H005   H  0.431796013708  0.086078437318  0.056589721671
 H006   H  0.056589721671  0.431796013708  0.086078437318
 H007   H  -0.470511284353  0.375206292037  0.443410278329
 H008   H  -0.345717576390  0.068203986292  0.124793707963
 H009   H  0.068203986292  0.124793707963  -0.345717576390
 H010   H  -0.154282423610  -0.029488715647  0.413921562682
 H011   H  -0.029488715647  0.413921562682  -0.154282423610
 H012   H  0.443410278329  -0.470511284353  0.375206292037
 H013   H  -0.443410278329  -0.413921562682  -0.068203986292
 H014   H  0.154282423610  -0.375206292037  -0.431796013708
 H015   H  0.345717576390  -0.086078437318  0.470511284353
 H016   H  -0.056589721671  -0.124793707963  0.029488715647
 H017   H  -0.413921562682  -0.068203986292  -0.443410278329
 H018   H  -0.068203986292  -0.443410278329  -0.413921562682
 H019   H  -0.124793707963  0.029488715647  -0.056589721671
 H020   H  -0.431796013708  0.154282423610  -0.375206292037
 H021   H  -0.375206292037  -0.431796013708  0.154282423610
 H022   H  0.470511284353  0.345717576390  -0.086078437318
 H023   H  -0.086078437318  0.470511284353  0.345717576390
 H024   H  0.029488715647  -0.056589721671  -0.124793707963
 H025   H  -0.019389077038  0.003771514658  0.285132682119
 H026   H  0.218638832539  -0.304521759157  0.214867317881
 H027   H  -0.480610922962  -0.195478240843  0.023160591696
 H028   H  0.281361167461  0.496228485342  0.476839408304
 H029   H  0.285132682119  -0.019389077038  0.003771514658
 H030   H  0.003771514658  0.285132682119  -0.019389077038
 H031   H  0.476839408304  0.281361167461  0.496228485342
 H032   H  -0.304521759157  0.214867317881  0.218638832539
 H033   H  0.214867317881  0.218638832539  -0.304521759157
 H034   H  -0.195478240843  0.023160591696  -0.480610922962
 H035   H  0.023160591696  -0.480610922962  -0.195478240843
 H036   H  0.496228485342  0.476839408304  0.281361167461
 H037   H  -0.496228485342  0.480610922962  -0.214867317881
 H038   H  0.195478240843  -0.281361167461  -0.285132682119
 H039   H  0.304521759157  0.019389077038  -0.476839408304
 H040   H  -0.003771514658  -0.218638832539  -0.023160591696
 H041   H  0.480610922962  -0.214867317881  -0.496228485342
 H042   H  -0.214867317881  -0.496228485342  0.480610922962
 H043   H  -0.218638832539  -0.023160591696  -0.003771514658
 H044   H  -0.285132682119  0.195478240843  -0.281361167461
 H045   H  -0.281361167461  -0.285132682119  0.195478240843
 H046   H  -0.476839408304  0.304521759157  0.019389077038
 H047   H  0.019389077038  -0.476839408304  0.304521759157
 H048   H  -0.023160591696  -0.003771514658  -0.218638832539
 H049   H  -0.037831780684  -0.071672573360  0.300582853963
 H050   H  0.127744572677  -0.338414634647  0.199417146036
 H051   H  -0.462168219316  -0.161585365353  -0.033840792676
 H052   H  0.372255427323  -0.428327426640  -0.466159207324
 H053   H  0.300582853963  -0.037831780684  -0.071672573360
 H054   H  -0.071672573360  0.300582853963  -0.037831780684
 H055   H  -0.466159207324  0.372255427323  -0.428327426640
 H056   H  -0.338414634647  0.199417146036  0.127744572677
 H057   H  0.199417146036  0.127744572677  -0.338414634647
 H058   H  -0.161585365353  -0.033840792676  -0.462168219316
 H059   H  -0.033840792676  -0.462168219316  -0.161585365353
 H060   H  -0.428327426640  -0.466159207324  0.372255427323
 H061   H  0.428327426640  0.462168219316  -0.199417146036
 H062   H  0.161585365353  -0.372255427323  -0.300582853963
 H063   H  0.338414634647  0.037831780684  0.466159207324
 H064   H  0.071672573360  -0.127744572677  0.033840792676
 H065   H  0.462168219316  -0.199417146036  0.428327426640
 H066   H  -0.199417146036  0.428327426640  0.462168219316
 H067   H  -0.127744572677  0.033840792676  0.071672573360
 H068   H  -0.300582853963  0.161585365353  -0.372255427323
 H069   H  -0.372255427323  -0.300582853963  0.161585365353
 H070   H  0.466159207324  0.338414634647  0.037831780684
 H071   H  0.037831780684  0.466159207324  0.338414634647
 H072   H  0.033840792676  0.071672573360  -0.127744572677
 H073   H  0.059808264524  0.081959988596  0.364269166681
 H074   H  0.217690821916  -0.304460902157  0.135730833320
 H075   H  0.440191735476  -0.195539097843  0.022151724073
 H076   H  0.282309178084  0.418040011404  0.477848275927
 H077   H  0.364269166681  0.059808264524  0.081959988596
 H078   H  0.081959988596  0.364269166681  0.059808264524
 H079   H  0.477848275927  0.282309178084  0.418040011404
 H080   H  -0.304460902157  0.135730833320  0.217690821916
 H081   H  0.135730833320  0.217690821916  -0.304460902157
 H082   H  -0.195539097843  0.022151724073  0.440191735476
 H083   H  0.022151724073  0.440191735476  -0.195539097843
 H084   H  0.418040011404  0.477848275927  0.282309178084
 H085   H  -0.418040011404  -0.440191735476  -0.135730833320
 H086   H  0.195539097843  -0.282309178084  -0.364269166681
 H087   H  0.304460902157  -0.059808264524  -0.477848275927
 H088   H  -0.081959988596  -0.217690821916  -0.022151724073
 H089   H  -0.440191735476  -0.135730833320  -0.418040011404
 H090   H  -0.135730833320  -0.418040011404  -0.440191735476
 H091   H  -0.217690821916  -0.022151724073  -0.081959988596
 H092   H  -0.364269166681  0.195539097843  -0.282309178084
 H093   H  -0.282309178084  -0.364269166681  0.195539097843
 H094   H  -0.477848275927  0.304460902157  -0.059808264524
 H095   H  -0.059808264524  -0.477848275927  0.304460902157
 H096   H  -0.022151724073  -0.081959988596  -0.217690821916
 C097   C  0.056993941189  0.033426405547  0.394767334556
 C098   C  0.138659070991  -0.337773393367  0.105232665444
 C099   C  0.443006058811  -0.162226606633  -0.023567535642
 C100   C  0.361340929009  0.466573594453  -0.476432464358
 C101   C  0.394767334556  0.056993941189  0.033426405547
 C102   C  0.033426405547  0.394767334556  0.056993941189
 C103   C  -0.476432464358  0.361340929009  0.466573594453
 C104   C  -0.337773393367  0.105232665444  0.138659070991
 C105   C  0.105232665444  0.138659070991  -0.337773393367
 C106   C  -0.162226606633  -0.023567535642  0.443006058811
 C107   C  -0.023567535642  0.443006058811  -0.162226606633
 C108   C  0.466573594453  -0.476432464358  0.361340929009
 C109   C  -0.466573594453  -0.443006058811  -0.105232665444
 C110   C  0.162226606633  -0.361340929009  -0.394767334556
 C111   C  0.337773393367  -0.056993941189  0.476432464358
 C112   C  -0.033426405547  -0.138659070991  0.023567535642
 C113   C  -0.443006058811  -0.105232665444  -0.466573594453
 C114   C  -0.105232665444  -0.466573594453  -0.443006058811
 C115   C  -0.138659070991  0.023567535642  -0.033426405547
 C116   C  -0.394767334556  0.162226606633  -0.361340929009
 C117   C  -0.361340929009  -0.394767334556  0.162226606633
 C118   C  0.476432464358  0.337773393367  -0.056993941189
 C119   C  -0.056993941189  0.476432464358  0.337773393367
 C120   C  0.023567535642  -0.033426405547  -0.138659070991
 C121   C  0.024809350792  -0.017228532608  0.373803613802
 C122   C  0.108967853590  -0.348994263009  0.126196386198
 C123   C  0.475190649207  -0.151005736991  -0.042037883401
 C124   C  0.391032146410  -0.482771467392  -0.457962116599
 C125   C  0.373803613802  0.024809350792  -0.017228532608
 C126   C  -0.017228532608  0.373803613802  0.024809350792
 C127   C  -0.457962116599  0.391032146410  -0.482771467392
 C128   C  -0.348994263009  0.126196386198  0.108967853590
 C129   C  0.126196386198  0.108967853590  -0.348994263009
 C130   C  -0.151005736991  -0.042037883401  0.475190649207
 C131   C  -0.042037883401  0.475190649207  -0.151005736991
 C132   C  -0.482771467392  -0.457962116599  0.391032146410
 C133   C  0.482771467392  -0.475190649207  -0.126196386198
 C134   C  0.151005736991  -0.391032146410  -0.373803613802
 C135   C  0.348994263009  -0.024809350792  0.457962116599
 C136   C  0.017228532608  -0.108967853590  0.042037883401
 C137   C  -0.475190649207  -0.126196386198  0.482771467392
 C138   C  -0.126196386198  0.482771467392  -0.475190649207
 C139   C  -0.108967853590  0.042037883401  0.017228532608
 C140   C  -0.373803613802  0.151005736991  -0.391032146410
 C141   C  -0.391032146410  -0.373803613802  0.151005736991
 C142   C  0.457962116599  0.348994263009  -0.024809350792
 C143   C  -0.024809350792  0.457962116599  0.348994263009
 C144   C  0.042037883401  0.017228532608  -0.108967853590
 C145   C  0.043782786942  0.046301526293  0.359488415309
 C146   C  0.186813110984  -0.315705628367  0.140511584691
 C147   C  0.456217213058  -0.184294371633  0.002518739351
 C148   C  0.313186889016  0.453698473707  0.497481260649
 C149   C  0.359488415309  0.043782786942  0.046301526293
 C150   C  0.046301526293  0.359488415309  0.043782786942
 C151   C  0.497481260649  0.313186889016  0.453698473707
 C152   C  -0.315705628367  0.140511584691  0.186813110984
 C153   C  0.140511584691  0.186813110984  -0.315705628367
 C154   C  -0.184294371633  0.002518739351  0.456217213058
 C155   C  0.002518739351  0.456217213058  -0.184294371633
 C156   C  0.453698473707  0.497481260649  0.313186889016
 C157   C  -0.453698473707  -0.456217213058  -0.140511584691
 C158   C  0.184294371633  -0.313186889016  -0.359488415309
 C159   C  0.315705628367  -0.043782786942  -0.497481260649
 C160   C  -0.046301526293  -0.186813110984  -0.002518739351
 C161   C  -0.456217213058  -0.140511584691  -0.453698473707
 C162   C  -0.140511584691  -0.453698473707  -0.456217213058
 C163   C  -0.186813110984  -0.002518739351  -0.046301526293
 C164   C  -0.359488415309  0.184294371633  -0.313186889016
 C165   C  -0.313186889016  -0.359488415309  0.184294371633
 C166   C  -0.497481260649  0.315705628367  -0.043782786942
 C167   C  -0.043782786942  -0.497481260649  0.315705628367
 C168   C  -0.002518739351  -0.046301526293  -0.186813110984
Ni169  Ni  -0.013938188353  0.017228971825  0.372901883928
Ni170  Ni  0.144327087897  -0.386840072281  0.127098116072
Ni171  Ni  -0.486061811647  -0.113159927719  0.031167160178
Ni172  Ni  0.355672912103  0.482771028175  0.468832839822
Ni173  Ni  0.372901883928  -0.013938188353  0.017228971825
Ni174  Ni  0.017228971825  0.372901883928  -0.013938188353
Ni175  Ni  0.468832839822  0.355672912103  0.482771028175
Ni176  Ni  -0.386840072281  0.127098116072  0.144327087897
Ni177  Ni  0.127098116072  0.144327087897  -0.386840072281
Ni178  Ni  -0.113159927719  0.031167160178  -0.486061811647
Ni179  Ni  0.031167160178  -0.486061811647  -0.113159927719
Ni180  Ni  0.482771028175  0.468832839822  0.355672912103
Ni181  Ni  -0.482771028175  0.486061811647  -0.127098116072
Ni182  Ni  0.113159927719  -0.355672912103  -0.372901883928
Ni183  Ni  0.386840072281  0.013938188353  -0.468832839822
Ni184  Ni  -0.017228971825  -0.144327087897  -0.031167160178
Ni185  Ni  0.486061811647  -0.127098116072  -0.482771028175
Ni186  Ni  -0.127098116072  -0.482771028175  0.486061811647
Ni187  Ni  -0.144327087897  -0.031167160178  -0.017228971825
Ni188  Ni  -0.372901883928  0.113159927719  -0.355672912103
Ni189  Ni  -0.355672912103  -0.372901883928  0.113159927719
Ni190  Ni  -0.468832839822  0.386840072281  0.013938188353
Ni191  Ni  0.013938188353  -0.468832839822  0.386840072281
Ni192  Ni  -0.031167160178  -0.017228971825  -0.144327087897
 H193   H  0.007318322121  0.042440053382  0.462603482263
 H194   H  0.079836571119  -0.455285160142  0.037396517737
 H195   H  0.492681677879  -0.044714839858  0.035121731261
 H196   H  0.420163428881  0.457559946618  0.464878268739
 H197   H  0.462603482263  0.007318322121  0.042440053382
 H198   H  0.042440053382  0.462603482263  0.007318322121
 H199   H  0.464878268739  0.420163428881  0.457559946618
 H200   H  -0.455285160142  0.037396517737  0.079836571119
 H201   H  0.037396517737  0.079836571119  -0.455285160142
 H202   H  -0.044714839858  0.035121731261  0.492681677879
 H203   H  0.035121731261  0.492681677879  -0.044714839858
 H204   H  0.457559946618  0.464878268739  0.420163428881
 H205   H  -0.457559946618  -0.492681677879  -0.037396517737
 H206   H  0.044714839858  -0.420163428881  -0.462603482263
 H207   H  0.455285160142  -0.007318322121  -0.464878268739
 H208   H  -0.042440053382  -0.079836571119  -0.035121731261
 H209   H  -0.492681677879  -0.037396517737  -0.457559946618
 H210   H  -0.037396517737  -0.457559946618  -0.492681677879
 H211   H  -0.079836571119  -0.035121731261  -0.042440053382
 H212   H  -0.462603482263  0.044714839858  -0.420163428881
 H213   H  -0.420163428881  -0.462603482263  0.044714839858
 H214   H  -0.464878268739  0.455285160142  -0.007318322121
 H215   H  -0.007318322121  -0.464878268739  0.455285160142
 H216   H  -0.035121731261  -0.042440053382  -0.079836571119
 C217   C  0.001007133399  0.005069660973  0.318108965323
 C218   C  0.186960695650  -0.317101831924  0.181891034677
 C219   C  0.498992866601  -0.182898168076  0.004062527574
 C220   C  0.313039304350  0.494930339027  0.495937472426
 C221   C  0.318108965323  0.001007133399  0.005069660973
 C222   C  0.005069660973  0.318108965323  0.001007133399
 C223   C  0.495937472426  0.313039304350  0.494930339027
 C224   C  -0.317101831924  0.181891034677  0.186960695650
 C225   C  0.181891034677  0.186960695650  -0.317101831924
 C226   C  -0.182898168076  0.004062527574  0.498992866601
 C227   C  0.004062527574  0.498992866601  -0.182898168076
 C228   C  0.494930339027  0.495937472426  0.313039304350
 C229   C  -0.494930339027  -0.498992866601  -0.181891034677
 C230   C  0.182898168076  -0.313039304350  -0.318108965323
 C231   C  0.317101831924  -0.001007133399  -0.495937472426
 C232   C  -0.005069660973  -0.186960695650  -0.004062527574
 C233   C  -0.498992866601  -0.181891034677  -0.494930339027
 C234   C  -0.181891034677  -0.494930339027  -0.498992866601
 C235   C  -0.186960695650  -0.004062527574  -0.005069660973
 C236   C  -0.318108965323  0.182898168076  -0.313039304350
 C237   C  -0.313039304350  -0.318108965323  0.182898168076
 C238   C  -0.495937472426  0.317101831924  -0.001007133399
 C239   C  -0.001007133399  -0.495937472426  0.317101831924
 C240   C  -0.004062527574  -0.005069660973  -0.186960695650
 H241   H  -0.010697750499  0.094194804641  0.422578486503
 H242   H  0.171616318138  -0.433276237002  0.077421513497
 H243   H  -0.489302249501  -0.066723762998  0.104892555140
 H244   H  0.328383681862  0.405805195359  0.395107444860
 H245   H  0.422578486503  -0.010697750499  0.094194804641
 H246   H  0.094194804641  0.422578486503  -0.010697750499
 H247   H  0.395107444860  0.328383681862  0.405805195359
 H248   H  -0.433276237002  0.077421513497  0.171616318138
 H249   H  0.077421513497  0.171616318138  -0.433276237002
 H250   H  -0.066723762998  0.104892555140  -0.489302249501
 H251   H  0.104892555140  -0.489302249501  -0.066723762998
 H252   H  0.405805195359  0.395107444860  0.328383681862
 H253   H  -0.405805195359  0.489302249501  -0.077421513497
 H254   H  0.066723762998  -0.328383681862  -0.422578486503
 H255   H  0.433276237002  0.010697750499  -0.395107444860
 H256   H  -0.094194804641  -0.171616318138  -0.104892555140
 H257   H  0.489302249501  -0.077421513497  -0.405805195359
 H258   H  -0.077421513497  -0.405805195359  0.489302249501
 H259   H  -0.171616318138  -0.104892555140  -0.094194804641
 H260   H  -0.422578486503  0.066723762998  -0.328383681862
 H261   H  -0.328383681862  -0.422578486503  0.066723762998
 H262   H  -0.395107444860  0.433276237002  0.010697750499
 H263   H  0.010697750499  -0.395107444860  0.433276237002
 H264   H  -0.104892555140  -0.094194804641  -0.171616318138
 C265   C  -0.073588726008  0.022509195604  0.360778911642
 C266   C  0.161730283962  -0.434367637651  0.139221088358
 C267   C  -0.426411273992  -0.065632362349  0.096097921612
 C268   C  0.338269716038  0.477490804396  0.403902078388
 C269   C  0.360778911642  -0.073588726008  0.022509195604
 C270   C  0.022509195604  0.360778911642  -0.073588726008
 C271   C  0.403902078388  0.338269716038  0.477490804396
 C272   C  -0.434367637651  0.139221088358  0.161730283962
 C273   C  0.139221088358  0.161730283962  -0.434367637651
 C274   C  -0.065632362349  0.096097921612  -0.426411273992
 C275   C  0.096097921612  -0.426411273992  -0.065632362349
 C276   C  0.477490804396  0.403902078388  0.338269716038
 C277   C  -0.477490804396  0.426411273992  -0.139221088358
 C278   C  0.065632362349  -0.338269716038  -0.360778911642
 C279   C  0.434367637651  0.073588726008  -0.403902078388
 C280   C  -0.022509195604  -0.161730283962  -0.096097921612
 C281   C  0.426411273992  -0.139221088358  -0.477490804396
 C282   C  -0.139221088358  -0.477490804396  0.426411273992
 C283   C  -0.161730283962  -0.096097921612  -0.022509195604
 C284   C  -0.360778911642  0.065632362349  -0.338269716038
 C285   C  -0.338269716038  -0.360778911642  0.065632362349
 C286   C  -0.403902078388  0.434367637651  0.073588726008
 C287   C  0.073588726008  -0.403902078388  0.434367637651
 C288   C  -0.096097921612  -0.022509195604  -0.161730283962
 C289   C  -0.023889964181  0.027771195493  0.428378920906
 C290   C  0.099392274587  -0.452268885086  0.071621079094
 C291   C  -0.476110035820  -0.047731114914  0.051661159674
 C292   C  0.400607725413  0.472228804507  0.448338840327
 C293   C  0.428378920906  -0.023889964181  0.027771195493
 C294   C  0.027771195493  0.428378920906  -0.023889964181
 C295   C  0.448338840327  0.400607725413  0.472228804507
 C296   C  -0.452268885086  0.071621079094  0.099392274587
 C297   C  0.071621079094  0.099392274587  -0.452268885086
 C298   C  -0.047731114914  0.051661159674  -0.476110035820
 C299   C  0.051661159674  -0.476110035820  -0.047731114914
 C300   C  0.472228804507  0.448338840327  0.400607725413
 C301   C  -0.472228804507  0.476110035820  -0.071621079094
 C302   C  0.047731114914  -0.400607725413  -0.428378920906
 C303   C  0.452268885086  0.023889964181  -0.448338840327
 C304   C  -0.027771195493  -0.099392274587  -0.051661159674
 C305   C  0.476110035820  -0.071621079094  -0.472228804507
 C306   C  -0.071621079094  -0.472228804507  0.476110035820
 C307   C  -0.099392274587  -0.051661159674  -0.027771195493
 C308   C  -0.428378920906  0.047731114914  -0.400607725413
 C309   C  -0.400607725413  -0.428378920906  0.047731114914
 C310   C  -0.448338840327  0.452268885086  0.023889964181
 C311   C  0.023889964181  -0.448338840327  0.452268885086
 C312   C  -0.051661159674  -0.027771195493  -0.099392274587
 C313   C  -0.033160764805  0.056037585976  0.407682344517
 C314   C  0.148355241459  -0.440843109322  0.092317655483
 C315   C  -0.466839235195  -0.059156890678  0.089198350781
 C316   C  0.351644758541  0.443962414024  0.410801649219
 C317   C  0.407682344517  -0.033160764805  0.056037585976
 C318   C  0.056037585976  0.407682344517  -0.033160764805
 C319   C  0.410801649219  0.351644758541  0.443962414024
 C320   C  -0.440843109322  0.092317655483  0.148355241459
 C321   C  0.092317655483  0.148355241459  -0.440843109322
 C322   C  -0.059156890678  0.089198350781  -0.466839235195
 C323   C  0.089198350781  -0.466839235195  -0.059156890678
 C324   C  0.443962414024  0.410801649219  0.351644758541
 C325   C  -0.443962414024  0.466839235195  -0.092317655483
 C326   C  0.059156890678  -0.351644758541  -0.407682344517
 C327   C  0.440843109322  0.033160764805  -0.410801649219
 C328   C  -0.056037585976  -0.148355241459  -0.089198350781
 C329   C  0.466839235195  -0.092317655483  -0.443962414024
 C330   C  -0.092317655483  -0.443962414024  0.466839235195
 C331   C  -0.148355241459  -0.089198350781  -0.056037585976
 C332   C  -0.407682344517  0.059156890678  -0.351644758541
 C333   C  -0.351644758541  -0.407682344517  0.059156890678
 C334   C  -0.410801649219  0.440843109322  0.033160764805
 C335   C  0.033160764805  -0.410801649219  0.440843109322
 C336   C  -0.089198350781  -0.056037585976  -0.148355241459
 H337   H  -0.089585510415  0.031400399312  0.334190034614
 H338   H  0.197210364697  -0.423775545030  0.165809965385
 H339   H  -0.410414489584  -0.076224454970  0.120985909727
 H340   H  0.302789635303  0.468599600688  0.379014090273
 H341   H  0.334190034614  -0.089585510415  0.031400399312
 H342   H  0.031400399312  0.334190034614  -0.089585510415
 H343   H  0.379014090273  0.302789635303  0.468599600688
 H344   H  -0.423775545030  0.165809965385  0.197210364697
 H345   H  0.165809965385  0.197210364697  -0.423775545030
 H346   H  -0.076224454970  0.120985909727  -0.410414489584
 H347   H  0.120985909727  -0.410414489584  -0.076224454970
 H348   H  0.468599600688  0.379014090273  0.302789635303
 H349   H  -0.468599600688  0.410414489584  -0.165809965385
 H350   H  0.076224454970  -0.302789635303  -0.334190034614
 H351   H  0.423775545030  0.089585510415  -0.379014090273
 H352   H  -0.031400399312  -0.197210364697  -0.120985909727
 H353   H  0.410414489584  -0.165809965385  -0.468599600688
 H354   H  -0.165809965385  -0.468599600688  0.410414489584
 H355   H  -0.197210364697  -0.120985909727  -0.031400399312
 H356   H  -0.334190034614  0.076224454970  -0.302789635303
 H357   H  -0.302789635303  -0.334190034614  0.076224454970
 H358   H  -0.379014090273  0.423775545030  0.089585510415
 H359   H  0.089585510415  -0.379014090273  0.423775545030
 H360   H  -0.120985909727  -0.031400399312  -0.197210364697
 H361   H  0.025616629528  -0.036776415051  0.393124045889
 H362   H  0.070099539060  -0.367507416361  0.106875954111
 H363   H  0.474383370472  -0.132492583639  -0.062393044579
 H364   H  0.429900460940  -0.463223584950  -0.437606955421
 H365   H  0.393124045889  0.025616629528  -0.036776415051
 H366   H  -0.036776415051  0.393124045889  0.025616629528
 H367   H  -0.437606955421  0.429900460940  -0.463223584950
 H368   H  -0.367507416361  0.106875954111  0.070099539060
 H369   H  0.106875954111  0.070099539060  -0.367507416361
 H370   H  -0.132492583639  -0.062393044579  0.474383370472
 H371   H  -0.062393044579  0.474383370472  -0.132492583639
 H372   H  -0.463223584950  -0.437606955421  0.429900460940
 H373   H  0.463223584950  -0.474383370472  -0.106875954111
 H374   H  0.132492583639  -0.429900460940  -0.393124045889
 H375   H  0.367507416361  -0.025616629528  0.437606955421
 H376   H  0.036776415051  -0.070099539060  0.062393044579
 H377   H  -0.474383370472  -0.106875954111  0.463223584950
 H378   H  -0.106875954111  0.463223584950  -0.474383370472
 H379   H  -0.070099539060  0.062393044579  0.036776415051
 H380   H  -0.393124045889  0.132492583639  -0.429900460940
 H381   H  -0.429900460940  -0.393124045889  0.132492583639
 H382   H  0.437606955421  0.367507416361  -0.025616629528
 H383   H  -0.025616629528  0.437606955421  0.367507416361
 H384   H  0.062393044579  0.036776415051  -0.070099539060
 O385   O  0.003201055296  -0.039701213321  0.459147912022
 O386   O  0.001150874658  -0.455946856725  0.040852087978
 O387   O  0.496798944704  -0.044053143275  -0.042902268617
 O388   O  0.498849125342  -0.460298786679  -0.457097731383
 O389   O  0.459147912022  0.003201055296  -0.039701213321
 O390   O  -0.039701213321  0.459147912022  0.003201055296
 O391   O  -0.457097731383  0.498849125342  -0.460298786679
 O392   O  -0.455946856725  0.040852087978  0.001150874658
 O393   O  0.040852087978  0.001150874658  -0.455946856725
 O394   O  -0.044053143275  -0.042902268617  0.496798944704
 O395   O  -0.042902268617  0.496798944704  -0.044053143275
 O396   O  -0.460298786679  -0.457097731383  0.498849125342
 O397   O  0.460298786679  -0.496798944704  -0.040852087978
 O398   O  0.044053143275  -0.498849125342  -0.459147912022
 O399   O  0.455946856725  -0.003201055296  0.457097731383
 O400   O  0.039701213321  -0.001150874658  0.042902268617
 O401   O  -0.496798944704  -0.040852087978  0.460298786679
 O402   O  -0.040852087978  0.460298786679  -0.496798944704
 O403   O  -0.001150874658  0.042902268617  0.039701213321
 O404   O  -0.459147912022  0.044053143275  -0.498849125342
 O405   O  -0.498849125342  -0.459147912022  0.044053143275
 O406   O  0.457097731383  0.455946856725  -0.003201055296
 O407   O  -0.003201055296  0.457097731383  0.455946856725
 O408   O  0.042902268617  0.039701213321  -0.001150874658
 H409   H  -0.149882875741  -0.075301583137  0.185960405742
 H410   H  0.238738011121  -0.335843281483  0.314039594258
 H411   H  -0.350117124259  -0.164156718517  0.074581292604
 H412   H  0.261261988879  -0.424698416863  0.425418707396
 H413   H  0.185960405742  -0.149882875741  -0.075301583137
 H414   H  -0.075301583137  0.185960405742  -0.149882875741
 H415   H  0.425418707396  0.261261988879  -0.424698416863
 H416   H  -0.335843281483  0.314039594258  0.238738011121
 H417   H  0.314039594258  0.238738011121  -0.335843281483
 H418   H  -0.164156718517  0.074581292604  -0.350117124259
 H419   H  0.074581292604  -0.350117124259  -0.164156718517
 H420   H  -0.424698416863  0.425418707396  0.261261988879
 H421   H  0.424698416863  0.350117124259  -0.314039594258
 H422   H  0.164156718517  -0.261261988879  -0.185960405742
 H423   H  0.335843281483  0.149882875741  -0.425418707396
 H424   H  0.075301583137  -0.238738011121  -0.074581292604
 H425   H  0.350117124259  -0.314039594258  0.424698416863
 H426   H  -0.314039594258  0.424698416863  0.350117124259
 H427   H  -0.238738011121  -0.074581292604  0.075301583137
 H428   H  -0.185960405742  0.164156718517  -0.261261988879
 H429   H  -0.261261988879  -0.185960405742  0.164156718517
 H430   H  -0.425418707396  0.335843281483  0.149882875741
 H431   H  0.149882875741  -0.425418707396  0.335843281483
 H432   H  -0.074581292604  0.075301583137  -0.238738011121
 H433   H  -0.191340152971  -0.133056990798  0.311149276945
 H434   H  0.055793732258  0.497510570085  0.188850723055
 H435   H  -0.308659847029  0.002489429915  0.058283162173
 H436   H  0.444206267742  -0.366943009202  0.441716837827
 H437   H  0.311149276945  -0.191340152971  -0.133056990798
 H438   H  -0.133056990798  0.311149276945  -0.191340152971
 H439   H  0.441716837827  0.444206267742  -0.366943009202
 H440   H  0.497510570085  0.188850723055  0.055793732258
 H441   H  0.188850723055  0.055793732258  0.497510570085
 H442   H  0.002489429915  0.058283162173  -0.308659847029
 H443   H  0.058283162173  -0.308659847029  0.002489429915
 H444   H  -0.366943009202  0.441716837827  0.444206267742
 H445   H  0.366943009202  0.308659847029  -0.188850723055
 H446   H  -0.002489429915  -0.444206267742  -0.311149276945
 H447   H  -0.497510570085  0.191340152971  -0.441716837827
 H448   H  0.133056990798  -0.055793732258  -0.058283162173
 H449   H  0.308659847029  -0.188850723055  0.366943009202
 H450   H  -0.188850723055  0.366943009202  0.308659847029
 H451   H  -0.055793732258  -0.058283162173  0.133056990798
 H452   H  -0.311149276945  -0.002489429915  -0.444206267742
 H453   H  -0.444206267742  -0.311149276945  -0.002489429915
 H454   H  -0.441716837827  -0.497510570085  0.191340152971
 H455   H  0.191340152971  -0.441716837827  -0.497510570085
 H456   H  -0.058283162173  0.133056990798  -0.055793732258
 C457   C  -0.008556081551  -0.035187668116  0.325835702911
 C458   C  0.138976628973  -0.334391784463  0.174164297089
 C459   C  -0.491443918449  -0.165608215537  -0.026631586565
 C460   C  0.361023371027  -0.464812331884  -0.473368413435
 C461   C  0.325835702911  -0.008556081551  -0.035187668116
 C462   C  -0.035187668116  0.325835702911  -0.008556081551
 C463   C  -0.473368413435  0.361023371027  -0.464812331884
 C464   C  -0.334391784463  0.174164297089  0.138976628973
 C465   C  0.174164297089  0.138976628973  -0.334391784463
 C466   C  -0.165608215537  -0.026631586565  -0.491443918449
 C467   C  -0.026631586565  -0.491443918449  -0.165608215537
 C468   C  -0.464812331884  -0.473368413435  0.361023371027
 C469   C  0.464812331884  0.491443918449  -0.174164297089
 C470   C  0.165608215537  -0.361023371027  -0.325835702911
 C471   C  0.334391784463  0.008556081551  0.473368413435
 C472   C  0.035187668116  -0.138976628973  0.026631586565
 C473   C  0.491443918449  -0.174164297089  0.464812331884
 C474   C  -0.174164297089  0.464812331884  0.491443918449
 C475   C  -0.138976628973  0.026631586565  0.035187668116
 C476   C  -0.325835702911  0.165608215537  -0.361023371027
 C477   C  -0.361023371027  -0.325835702911  0.165608215537
 C478   C  0.473368413435  0.334391784463  0.008556081551
 C479   C  0.008556081551  0.473368413435  0.334391784463
 C480   C  0.026631586565  0.035187668116  -0.138976628973
 H481   H  -0.282528398212  -0.119527880240  0.186670905508
 H482   H  0.193801214253  -0.469199303720  0.313329094492
 H483   H  -0.217471601788  -0.030800696280  0.163000517973
 H484   H  0.306198785747  -0.380472119760  0.336999482027
 H485   H  0.186670905508  -0.282528398212  -0.119527880240
 H486   H  -0.119527880240  0.186670905508  -0.282528398212
 H487   H  0.336999482027  0.306198785747  -0.380472119760
 H488   H  -0.469199303720  0.313329094492  0.193801214253
 H489   H  0.313329094492  0.193801214253  -0.469199303720
 H490   H  -0.030800696280  0.163000517973  -0.217471601788
 H491   H  0.163000517973  -0.217471601788  -0.030800696280
 H492   H  -0.380472119760  0.336999482027  0.306198785747
 H493   H  0.380472119760  0.217471601788  -0.313329094492
 H494   H  0.030800696280  -0.306198785747  -0.186670905508
 H495   H  0.469199303720  0.282528398212  -0.336999482027
 H496   H  0.119527880240  -0.193801214253  -0.163000517973
 H497   H  0.217471601788  -0.313329094492  0.380472119760
 H498   H  -0.313329094492  0.380472119760  0.217471601788
 H499   H  -0.193801214253  -0.163000517973  0.119527880240
 H500   H  -0.186670905508  0.030800696280  -0.306198785747
 H501   H  -0.306198785747  -0.186670905508  0.030800696280
 H502   H  -0.336999482027  0.469199303720  0.282528398212
 H503   H  0.282528398212  -0.336999482027  0.469199303720
 H504   H  -0.163000517973  0.119527880240  -0.193801214253
 H505   H  -0.239355080035  -0.095748227842  0.272622064860
 H506   H  0.131629707298  0.488022855105  0.227377935140
 H507   H  -0.260644919965  0.011977144895  0.143606852193
 H508   H  0.368370292702  -0.404251772158  0.356393147807
 H509   H  0.272622064860  -0.239355080035  -0.095748227842
 H510   H  -0.095748227842  0.272622064860  -0.239355080035
 H511   H  0.356393147807  0.368370292702  -0.404251772158
 H512   H  0.488022855105  0.227377935140  0.131629707298
 H513   H  0.227377935140  0.131629707298  0.488022855105
 H514   H  0.011977144895  0.143606852193  -0.260644919965
 H515   H  0.143606852193  -0.260644919965  0.011977144895
 H516   H  -0.404251772158  0.356393147807  0.368370292702
 H517   H  0.404251772158  0.260644919965  -0.227377935140
 H518   H  -0.011977144895  -0.368370292702  -0.272622064860
 H519   H  -0.488022855105  0.239355080035  -0.356393147807
 H520   H  0.095748227842  -0.131629707298  -0.143606852193
 H521   H  0.260644919965  -0.227377935140  0.404251772158
 H522   H  -0.227377935140  0.404251772158  0.260644919965
 H523   H  -0.131629707298  -0.143606852193  0.095748227842
 H524   H  -0.272622064860  -0.011977144895  -0.368370292702
 H525   H  -0.368370292702  -0.272622064860  -0.011977144895
 H526   H  -0.356393147807  -0.488022855105  0.239355080035
 H527   H  0.239355080035  -0.356393147807  -0.488022855105
 H528   H  -0.143606852193  0.095748227842  -0.131629707298
 H529   H  -0.138218386652  -0.127290738147  0.384910824884
 H530   H  -0.012201563031  0.476870788464  0.115089175116
 H531   H  -0.361781613348  0.023129211536  0.010927648505
 H532   H  -0.487798436969  -0.372709261853  0.489072351495
 H533   H  0.384910824884  -0.138218386652  -0.127290738147
 H534   H  -0.127290738147  0.384910824884  -0.138218386652
 H535   H  0.489072351495  -0.487798436969  -0.372709261853
 H536   H  0.476870788464  0.115089175116  -0.012201563031
 H537   H  0.115089175116  -0.012201563031  0.476870788464
 H538   H  0.023129211536  0.010927648505  -0.361781613348
 H539   H  0.010927648505  -0.361781613348  0.023129211536
 H540   H  -0.372709261853  0.489072351495  -0.487798436969
 H541   H  0.372709261853  0.361781613348  -0.115089175116
 H542   H  -0.023129211536  0.487798436969  -0.384910824884
 H543   H  -0.476870788464  0.138218386652  -0.489072351495
 H544   H  0.127290738147  0.012201563031  -0.010927648505
 H545   H  0.361781613348  -0.115089175116  0.372709261853
 H546   H  -0.115089175116  0.372709261853  0.361781613348
 H547   H  0.012201563031  -0.010927648505  0.127290738147
 H548   H  -0.384910824884  -0.023129211536  0.487798436969
 H549   H  0.487798436969  -0.384910824884  -0.023129211536
 H550   H  -0.489072351495  -0.476870788464  0.138218386652
 H551   H  0.138218386652  -0.489072351495  -0.476870788464
 H552   H  -0.010927648505  0.127290738147  0.012201563031
 H553   H  -0.106494208999  -0.048328583440  0.272731683027
 H554   H  0.178939733533  -0.379225892026  0.227268316973
 H555   H  -0.393505791001  -0.120774107974  0.058165625559
 H556   H  0.321060266467  -0.451671416560  0.441834374441
 H557   H  0.272731683027  -0.106494208999  -0.048328583440
 H558   H  -0.048328583440  0.272731683027  -0.106494208999
 H559   H  0.441834374441  0.321060266467  -0.451671416560
 H560   H  -0.379225892026  0.227268316973  0.178939733533
 H561   H  0.227268316973  0.178939733533  -0.379225892026
 H562   H  -0.120774107974  0.058165625559  -0.393505791001
 H563   H  0.058165625559  -0.393505791001  -0.120774107974
 H564   H  -0.451671416560  0.441834374441  0.321060266467
 H565   H  0.451671416560  0.393505791001  -0.227268316973
 H566   H  0.120774107974  -0.321060266467  -0.272731683027
 H567   H  0.379225892026  0.106494208999  -0.441834374441
 H568   H  0.048328583440  -0.178939733533  -0.058165625559
 H569   H  0.393505791001  -0.227268316973  0.451671416560
 H570   H  -0.227268316973  0.451671416560  0.393505791001
 H571   H  -0.178939733533  -0.058165625559  0.048328583440
 H572   H  -0.272731683027  0.120774107974  -0.321060266467
 H573   H  -0.321060266467  -0.272731683027  0.120774107974
 H574   H  -0.441834374441  0.379225892026  0.106494208999
 H575   H  0.106494208999  -0.441834374441  0.379225892026
 H576   H  -0.058165625559  0.048328583440  -0.178939733533
 C577   C  -0.243951814609  -0.105515804991  0.205304251894
 C578   C  0.189179943115  -0.449256066504  0.294695748105
 C579   C  -0.256048185391  -0.050743933496  0.138436009618
 C580   C  0.310820056885  -0.394484195009  0.361563990382
 C581   C  0.205304251894  -0.243951814609  -0.105515804991
 C582   C  -0.105515804991  0.205304251894  -0.243951814609
 C583   C  0.361563990382  0.310820056885  -0.394484195009
 C584   C  -0.449256066504  0.294695748105  0.189179943115
 C585   C  0.294695748105  0.189179943115  -0.449256066504
 C586   C  -0.050743933496  0.138436009618  -0.256048185391
 C587   C  0.138436009618  -0.256048185391  -0.050743933496
 C588   C  -0.394484195009  0.361563990382  0.310820056885
 C589   C  0.394484195009  0.256048185391  -0.294695748105
 C590   C  0.050743933496  -0.310820056885  -0.205304251894
 C591   C  0.449256066504  0.243951814609  -0.361563990382
 C592   C  0.105515804991  -0.189179943115  -0.138436009618
 C593   C  0.256048185391  -0.294695748105  0.394484195009
 C594   C  -0.294695748105  0.394484195009  0.256048185391
 C595   C  -0.189179943115  -0.138436009618  0.105515804991
 C596   C  -0.205304251894  0.050743933496  -0.310820056885
 C597   C  -0.310820056885  -0.205304251894  0.050743933496
 C598   C  -0.361563990382  0.449256066504  0.243951814609
 C599   C  0.243951814609  -0.361563990382  0.449256066504
 C600   C  -0.138436009618  0.105515804991  -0.189179943115
 C601   C  -0.170079861009  -0.072394259940  0.277702203347
 C602   C  0.149903536713  -0.447782064355  0.222297796653
 C603   C  -0.329920138991  -0.052217935645  0.097685601068
 C604   C  0.350096463287  -0.427605740060  0.402314398932
 C605   C  0.277702203347  -0.170079861009  -0.072394259940
 C606   C  -0.072394259940  0.277702203347  -0.170079861009
 C607   C  0.402314398932  0.350096463287  -0.427605740060
 C608   C  -0.447782064355  0.222297796653  0.149903536713
 C609   C  0.222297796653  0.149903536713  -0.447782064355
 C610   C  -0.052217935645  0.097685601068  -0.329920138991
 C611   C  0.097685601068  -0.329920138991  -0.052217935645
 C612   C  -0.427605740060  0.402314398932  0.350096463287
 C613   C  0.427605740060  0.329920138991  -0.222297796653
 C614   C  0.052217935645  -0.350096463287  -0.277702203347
 C615   C  0.447782064355  0.170079861009  -0.402314398932
 C616   C  0.072394259940  -0.149903536713  -0.097685601068
 C617   C  0.329920138991  -0.222297796653  0.427605740060
 C618   C  -0.222297796653  0.427605740060  0.329920138991
 C619   C  -0.149903536713  -0.097685601068  0.072394259940
 C620   C  -0.277702203347  0.052217935645  -0.350096463287
 C621   C  -0.350096463287  -0.277702203347  0.052217935645
 C622   C  -0.402314398932  0.447782064355  0.170079861009
 C623   C  0.170079861009  -0.402314398932  0.447782064355
 C624   C  -0.097685601068  0.072394259940  -0.149903536713
 C625   C  -0.219810475003  -0.102551397626  0.179350000035
 C626   C  0.218098602339  -0.399160475038  0.320649999965
 C627   C  -0.280189524997  -0.100839524962  0.117259077377
 C628   C  0.281901397661  -0.397448602374  0.382740922623
 C629   C  0.179350000035  -0.219810475003  -0.102551397626
 C630   C  -0.102551397626  0.179350000035  -0.219810475003
 C631   C  0.382740922623  0.281901397661  -0.397448602374
 C632   C  -0.399160475038  0.320649999965  0.218098602339
 C633   C  0.320649999965  0.218098602339  -0.399160475038
 C634   C  -0.100839524962  0.117259077377  -0.280189524997
 C635   C  0.117259077377  -0.280189524997  -0.100839524962
 C636   C  -0.397448602374  0.382740922623  0.281901397661
 C637   C  0.397448602374  0.280189524997  -0.320649999965
 C638   C  0.100839524962  -0.281901397661  -0.179350000035
 C639   C  0.399160475038  0.219810475003  -0.382740922623
 C640   C  0.102551397626  -0.218098602339  -0.117259077377
 C641   C  0.280189524997  -0.320649999965  0.397448602374
 C642   C  -0.320649999965  0.397448602374  0.280189524997
 C643   C  -0.218098602339  -0.117259077377  0.102551397626
 C644   C  -0.179350000035  0.100839524962  -0.281901397661
 C645   C  -0.281901397661  -0.179350000035  0.100839524962
 C646   C  -0.382740922623  0.399160475038  0.219810475003
 C647   C  0.219810475003  -0.382740922623  0.399160475038
 C648   C  -0.117259077377  0.102551397626  -0.218098602339
 C649   C  -0.169907524784  -0.079890282097  0.204595023693
 C650   C  0.215514694210  -0.374502548477  0.295404976307
 C651   C  -0.330092475216  -0.125497451523  0.090017242687
 C652   C  0.284485305790  -0.420109717903  0.409982757313
 C653   C  0.204595023693  -0.169907524784  -0.079890282097
 C654   C  -0.079890282097  0.204595023693  -0.169907524784
 C655   C  0.409982757313  0.284485305790  -0.420109717903
 C656   C  -0.374502548477  0.295404976307  0.215514694210
 C657   C  0.295404976307  0.215514694210  -0.374502548477
 C658   C  -0.125497451523  0.090017242687  -0.330092475216
 C659   C  0.090017242687  -0.330092475216  -0.125497451523
 C660   C  -0.420109717903  0.409982757313  0.284485305790
 C661   C  0.420109717903  0.330092475216  -0.295404976307
 C662   C  0.125497451523  -0.284485305790  -0.204595023693
 C663   C  0.374502548477  0.169907524784  -0.409982757313
 C664   C  0.079890282097  -0.215514694210  -0.090017242687
 C665   C  0.330092475216  -0.295404976307  0.420109717903
 C666   C  -0.295404976307  0.420109717903  0.330092475216
 C667   C  -0.215514694210  -0.090017242687  0.079890282097
 C668   C  -0.204595023693  0.125497451523  -0.284485305790
 C669   C  -0.284485305790  -0.204595023693  0.125497451523
 C670   C  -0.409982757313  0.374502548477  0.169907524784
 C671   C  0.169907524784  -0.409982757313  0.374502548477
 C672   C  -0.090017242687  0.079890282097  -0.215514694210
 C673   C  -0.080460734442  -0.057201376604  0.411271938332
 C674   C  0.031526685064  -0.491732672775  0.088728061668
 C675   C  -0.419539265558  -0.008267327225  0.023259357838
 C676   C  0.468473314937  -0.442798623396  0.476740642162
 C677   C  0.411271938332  -0.080460734442  -0.057201376604
 C678   C  -0.057201376604  0.411271938332  -0.080460734442
 C679   C  0.476740642162  0.468473314937  -0.442798623396
 C680   C  -0.491732672775  0.088728061668  0.031526685064
 C681   C  0.088728061668  0.031526685064  -0.491732672775
 C682   C  -0.008267327225  0.023259357838  -0.419539265558
 C683   C  0.023259357838  -0.419539265558  -0.008267327225
 C684   C  -0.442798623396  0.476740642162  0.468473314937
 C685   C  0.442798623396  0.419539265558  -0.088728061668
 C686   C  0.008267327225  -0.468473314937  -0.411271938332
 C687   C  0.491732672775  0.080460734442  -0.476740642162
 C688   C  0.057201376604  -0.031526685064  -0.023259357838
 C689   C  0.419539265558  -0.088728061668  0.442798623396
 C690   C  -0.088728061668  0.442798623396  0.419539265558
 C691   C  -0.031526685064  -0.023259357838  0.057201376604
 C692   C  -0.411271938332  0.008267327225  -0.468473314937
 C693   C  -0.468473314937  -0.411271938332  0.008267327225
 C694   C  -0.476740642162  0.491732672775  0.080460734442
 C695   C  0.080460734442  -0.476740642162  0.491732672775
 C696   C  -0.023259357838  0.057201376604  -0.031526685064
 C697   C  -0.098923350869  -0.022018872288  0.360285165104
 C698   C  0.117695962608  -0.459208515973  0.139714834896
 C699   C  -0.401076649131  -0.040791484027  0.076904478581
 C700   C  0.382304037392  -0.477981127712  0.423095521419
 C701   C  0.360285165104  -0.098923350869  -0.022018872288
 C702   C  -0.022018872288  0.360285165104  -0.098923350869
 C703   C  0.423095521419  0.382304037392  -0.477981127712
 C704   C  -0.459208515973  0.139714834896  0.117695962608
 C705   C  0.139714834896  0.117695962608  -0.459208515973
 C706   C  -0.040791484027  0.076904478581  -0.401076649131
 C707   C  0.076904478581  -0.401076649131  -0.040791484027
 C708   C  -0.477981127712  0.423095521419  0.382304037392
 C709   C  0.477981127712  0.401076649131  -0.139714834896
 C710   C  0.040791484027  -0.382304037392  -0.360285165104
 C711   C  0.459208515973  0.098923350869  -0.423095521419
 C712   C  0.022018872288  -0.117695962608  -0.076904478581
 C713   C  0.401076649131  -0.139714834896  0.477981127712
 C714   C  -0.139714834896  0.477981127712  0.401076649131
 C715   C  -0.117695962608  -0.076904478581  0.022018872288
 C716   C  -0.360285165104  0.040791484027  -0.382304037392
 C717   C  -0.382304037392  -0.360285165104  0.040791484027
 C718   C  -0.423095521419  0.459208515973  0.098923350869
 C719   C  0.098923350869  -0.423095521419  0.459208515973
 C720   C  -0.076904478581  0.022018872288  -0.117695962608
 C721   C  -0.219836687619  -0.091906288977  0.253356995288
 C722   C  0.154736715735  -0.473193682907  0.246643004712
 C723   C  -0.280163312381  -0.026806317093  0.127930398642
 C724   C  0.345263284265  -0.408093711023  0.372069601358
 C725   C  0.253356995288  -0.219836687619  -0.091906288977
 C726   C  -0.091906288977  0.253356995288  -0.219836687619
 C727   C  0.372069601358  0.345263284265  -0.408093711023
 C728   C  -0.473193682907  0.246643004712  0.154736715735
 C729   C  0.246643004712  0.154736715735  -0.473193682907
 C730   C  -0.026806317093  0.127930398642  -0.280163312381
 C731   C  0.127930398642  -0.280163312381  -0.026806317093
 C732   C  -0.408093711023  0.372069601358  0.345263284265
 C733   C  0.408093711023  0.280163312381  -0.246643004712
 C734   C  0.026806317093  -0.345263284265  -0.253356995288
 C735   C  0.473193682907  0.219836687619  -0.372069601358
 C736   C  0.091906288977  -0.154736715735  -0.127930398642
 C737   C  0.280163312381  -0.246643004712  0.408093711023
 C738   C  -0.246643004712  0.408093711023  0.280163312381
 C739   C  -0.154736715735  -0.127930398642  0.091906288977
 C740   C  -0.253356995288  0.026806317093  -0.345263284265
 C741   C  -0.345263284265  -0.253356995288  0.026806317093
 C742   C  -0.372069601358  0.473193682907  0.219836687619
 C743   C  0.219836687619  -0.372069601358  0.473193682907
 C744   C  -0.127930398642  0.091906288977  -0.154736715735
 C745   C  -0.142837953641  -0.063669165316  0.326295170544
 C746   C  0.110035664140  -0.469133124184  0.173704829456
 C747   C  -0.357162046359  -0.030866875815  0.079168788324
 C748   C  0.389964335860  -0.436330834684  0.420831211676
 C749   C  0.326295170544  -0.142837953641  -0.063669165316
 C750   C  -0.063669165316  0.326295170544  -0.142837953641
 C751   C  0.420831211676  0.389964335860  -0.436330834684
 C752   C  -0.469133124184  0.173704829456  0.110035664140
 C753   C  0.173704829456  0.110035664140  -0.469133124184
 C754   C  -0.030866875815  0.079168788324  -0.357162046359
 C755   C  0.079168788324  -0.357162046359  -0.030866875815
 C756   C  -0.436330834684  0.420831211676  0.389964335860
 C757   C  0.436330834684  0.357162046359  -0.173704829456
 C758   C  0.030866875815  -0.389964335860  -0.326295170544
 C759   C  0.469133124184  0.142837953641  -0.420831211676
 C760   C  0.063669165316  -0.110035664140  -0.079168788324
 C761   C  0.357162046359  -0.173704829456  0.436330834684
 C762   C  -0.173704829456  0.436330834684  0.357162046359
 C763   C  -0.110035664140  -0.079168788324  0.063669165316
 C764   C  -0.326295170544  0.030866875815  -0.389964335860
 C765   C  -0.389964335860  -0.326295170544  0.030866875815
 C766   C  -0.420831211676  0.469133124184  0.142837953641
 C767   C  0.142837953641  -0.420831211676  0.469133124184
 C768   C  -0.079168788324  0.063669165316  -0.110035664140
 C769   C  -0.145433835719  -0.064713221486  0.253181574676
 C770   C  0.182105203839  -0.398615410395  0.246818425324
 C771   C  -0.354566164281  -0.101384589605  0.080720614233
 C772   C  0.317894796161  -0.435286778514  0.419279385767
 C773   C  0.253181574676  -0.145433835719  -0.064713221486
 C774   C  -0.064713221486  0.253181574676  -0.145433835719
 C775   C  0.419279385767  0.317894796161  -0.435286778514
 C776   C  -0.398615410395  0.246818425324  0.182105203839
 C777   C  0.246818425324  0.182105203839  -0.398615410395
 C778   C  -0.101384589605  0.080720614233  -0.354566164281
 C779   C  0.080720614233  -0.354566164281  -0.101384589605
 C780   C  -0.435286778514  0.419279385767  0.317894796161
 C781   C  0.435286778514  0.354566164281  -0.246818425324
 C782   C  0.101384589605  -0.317894796161  -0.253181574676
 C783   C  0.398615410395  0.145433835719  -0.419279385767
 C784   C  0.064713221486  -0.182105203839  -0.080720614233
 C785   C  0.354566164281  -0.246818425324  0.435286778514
 C786   C  -0.246818425324  0.435286778514  0.354566164281
 C787   C  -0.182105203839  -0.080720614233  0.064713221486
 C788   C  -0.253181574676  0.101384589605  -0.317894796161
 C789   C  -0.317894796161  -0.253181574676  0.101384589605
 C790   C  -0.419279385767  0.398615410395  0.145433835719
 C791   C  0.145433835719  -0.419279385767  0.398615410395
 C792   C  -0.080720614233  0.064713221486  -0.182105203839
 C793   C  -0.126760375965  -0.097105372415  0.378865927537
 C794   C  0.024028700048  0.494373696498  0.121134072463
 C795   C  -0.373239624035  0.005626303502  0.029655003550
 C796   C  0.475971299952  -0.402894627585  0.470344996450
 C797   C  0.378865927537  -0.126760375965  -0.097105372415
 C798   C  -0.097105372415  0.378865927537  -0.126760375965
 C799   C  0.470344996450  0.475971299952  -0.402894627585
 C800   C  0.494373696498  0.121134072463  0.024028700048
 C801   C  0.121134072463  0.024028700048  0.494373696498
 C802   C  0.005626303502  0.029655003550  -0.373239624035
 C803   C  0.029655003550  -0.373239624035  0.005626303502
 C804   C  -0.402894627585  0.470344996450  0.475971299952
 C805   C  0.402894627585  0.373239624035  -0.121134072463
 C806   C  -0.005626303502  -0.475971299952  -0.378865927537
 C807   C  -0.494373696498  0.126760375965  -0.470344996450
 C808   C  0.097105372415  -0.024028700048  -0.029655003550
 C809   C  0.373239624035  -0.121134072463  0.402894627585
 C810   C  -0.121134072463  0.402894627585  0.373239624035
 C811   C  -0.024028700048  -0.029655003550  0.097105372415
 C812   C  -0.378865927537  -0.005626303502  -0.475971299952
 C813   C  -0.475971299952  -0.378865927537  -0.005626303502
 C814   C  -0.470344996450  -0.494373696498  0.126760375965
 C815   C  0.126760375965  -0.470344996450  -0.494373696498
 C816   C  -0.029655003550  0.097105372415  -0.024028700048
 C817   C  -0.067915205598  -0.019060214484  0.402334266245
 C818   C  0.078605519271  -0.470249471843  0.097665733755
 C819   C  -0.432084794402  -0.029750528157  0.048854991114
 C820   C  0.421394480729  -0.480939785516  0.451145008886
 C821   C  0.402334266245  -0.067915205598  -0.019060214484
 C822   C  -0.019060214484  0.402334266245  -0.067915205598
 C823   C  0.451145008886  0.421394480729  -0.480939785516
 C824   C  -0.470249471843  0.097665733755  0.078605519271
 C825   C  0.097665733755  0.078605519271  -0.470249471843
 C826   C  -0.029750528157  0.048854991114  -0.432084794402
 C827   C  0.048854991114  -0.432084794402  -0.029750528157
 C828   C  -0.480939785516  0.451145008886  0.421394480729
 C829   C  0.480939785516  0.432084794402  -0.097665733755
 C830   C  0.029750528157  -0.421394480729  -0.402334266245
 C831   C  0.470249471843  0.067915205598  -0.451145008886
 C832   C  0.019060214484  -0.078605519271  -0.048854991114
 C833   C  0.432084794402  -0.097665733755  0.480939785516
 C834   C  -0.097665733755  0.480939785516  0.432084794402
 C835   C  -0.078605519271  -0.048854991114  0.019060214484
 C836   C  -0.402334266245  0.029750528157  -0.421394480729
 C837   C  -0.421394480729  -0.402334266245  0.029750528157
 C838   C  -0.451145008886  0.470249471843  0.067915205598
 C839   C  0.067915205598  -0.451145008886  0.470249471843
 C840   C  -0.048854991114  0.019060214484  -0.078605519271
 B841   B  -0.040706666565  -0.049630109039  0.456246748886
 B842   B  -0.005876857925  -0.496953415451  0.043753251114
 B843   B  -0.459293333435  -0.003046584549  -0.008923442474
 B844   B  -0.494123142075  -0.450369890961  -0.491076557526
 B845   B  0.456246748886  -0.040706666565  -0.049630109039
 B846   B  -0.049630109039  0.456246748886  -0.040706666565
 B847   B  -0.491076557526  -0.494123142075  -0.450369890961
 B848   B  -0.496953415451  0.043753251114  -0.005876857925
 B849   B  0.043753251114  -0.005876857925  -0.496953415451
 B850   B  -0.003046584549  -0.008923442474  -0.459293333435
 B851   B  -0.008923442474  -0.459293333435  -0.003046584549
 B852   B  -0.450369890961  -0.491076557526  -0.494123142075
 B853   B  0.450369890961  0.459293333435  -0.043753251114
 B854   B  0.003046584549  0.494123142075  -0.456246748886
 B855   B  0.496953415451  0.040706666565  0.491076557526
 B856   B  0.049630109039  0.005876857925  0.008923442474
 B857   B  0.459293333435  -0.043753251114  0.450369890961
 B858   B  -0.043753251114  0.450369890961  0.459293333435
 B859   B  0.005876857925  0.008923442474  0.049630109039
 B860   B  -0.456246748886  0.003046584549  0.494123142075
 B861   B  0.494123142075  -0.456246748886  0.003046584549
 B862   B  0.491076557526  0.496953415451  0.040706666565
 B863   B  0.040706666565  0.491076557526  0.496953415451
 B864   B  0.008923442474  0.049630109039  0.005876857925
 C865   C  -0.157029307548  -0.100312233186  0.337442733269
 C866   C  0.062245033545  -0.494472040817  0.162557266730
 C867   C  -0.342970692452  -0.005527959183  0.056717074362
 C868   C  0.437754966455  -0.399687766815  0.443282925638
 C869   C  0.337442733269  -0.157029307548  -0.100312233186
 C870   C  -0.100312233186  0.337442733269  -0.157029307548
 C871   C  0.443282925638  0.437754966455  -0.399687766815
 C872   C  -0.494472040817  0.162557266730  0.062245033545
 C873   C  0.162557266730  0.062245033545  -0.494472040817
 C874   C  -0.005527959183  0.056717074362  -0.342970692452
 C875   C  0.056717074362  -0.342970692452  -0.005527959183
 C876   C  -0.399687766815  0.443282925638  0.437754966455
 C877   C  0.399687766815  0.342970692452  -0.162557266730
 C878   C  0.005527959183  -0.437754966455  -0.337442733269
 C879   C  0.494472040817  0.157029307548  -0.443282925638
 C880   C  0.100312233186  -0.062245033545  -0.056717074362
 C881   C  0.342970692452  -0.162557266730  0.399687766815
 C882   C  -0.162557266730  0.399687766815  0.342970692452
 C883   C  -0.062245033545  -0.056717074362  0.100312233186
 C884   C  -0.337442733269  0.005527959183  -0.437754966455
 C885   C  -0.437754966455  -0.337442733269  0.005527959183
 C886   C  -0.443282925638  0.494472040817  0.157029307548
 C887   C  0.157029307548  -0.443282925638  0.494472040817
 C888   C  -0.056717074362  0.100312233186  -0.062245033545
 C889   C  -0.375000000000  0.375000000000  0.250000000000
 C890   C  -0.125000000000  0.125000000000  -0.250000000000
 C891   C  0.250000000000  -0.375000000000  0.375000000000
 C892   C  0.375000000000  0.250000000000  -0.375000000000
 C893   C  -0.250000000000  -0.125000000000  0.125000000000
 C894   C  0.125000000000  -0.250000000000  -0.125000000000
