data_Staggered_MSUCOF-4-FeCp_BULK_OPTGEOM_DZ_optimized.outout

_cell_length_a                         37.30218430
_cell_length_b                         37.30218430
_cell_length_c                         37.30218430
_cell_angle_alpha                      109.47122100
_cell_angle_beta                       109.47122100
_cell_angle_gamma                      109.47122100
_symmetry_space_group_name_H-M         'P 1'
_symmetry_Int_Tables_number            1

loop_
_symmetry_equiv_pos_as_xyz
   'x, y, z'

loop_
   _atom_site_label
   _atom_site_type_symbol
   _atom_site_fract_x
   _atom_site_fract_y
   _atom_site_fract_z
 H001   H  0.328393611397  0.044186550002  0.014361669335
 H002   H  -0.470175119332  0.314031942062  0.485638330665
 H003   H  0.171606388603  0.185968057938  -0.284207061394
 H004   H  -0.029824880668  0.455813449998  -0.215792938606
 H005   H  0.014361669335  0.328393611397  0.044186550002
 H006   H  0.044186550002  0.014361669335  0.328393611397
 H007   H  -0.215792938606  -0.029824880668  0.455813449998
 H008   H  0.314031942062  0.485638330665  -0.470175119332
 H009   H  0.485638330665  -0.470175119332  0.314031942062
 H010   H  0.185968057938  -0.284207061394  0.171606388603
 H011   H  -0.284207061394  0.171606388603  0.185968057938
 H012   H  0.455813449998  -0.215792938606  -0.029824880668
 H013   H  -0.455813449998  -0.171606388603  -0.485638330665
 H014   H  -0.185968057938  0.029824880668  -0.014361669335
 H015   H  -0.314031942062  -0.328393611397  0.215792938606
 H016   H  -0.044186550002  0.470175119332  0.284207061394
 H017   H  -0.171606388603  -0.485638330665  -0.455813449998
 H018   H  -0.485638330665  -0.455813449998  -0.171606388603
 H019   H  0.470175119332  0.284207061394  -0.044186550002
 H020   H  -0.014361669335  -0.185968057938  0.029824880668
 H021   H  0.029824880668  -0.014361669335  -0.185968057938
 H022   H  0.215792938606  -0.314031942062  -0.328393611397
 H023   H  -0.328393611397  0.215792938606  -0.314031942062
 H024   H  0.284207061394  -0.044186550002  0.470175119332
 H025   H  0.295768980646  -0.082975377554  -0.084735012271
 H026   H  -0.498240365283  0.380503992917  -0.415264987729
 H027   H  0.204231019354  0.119496007083  -0.378744358199
 H028   H  -0.001759634717  -0.417024622446  -0.121255641801
 H029   H  -0.084735012271  0.295768980646  -0.082975377554
 H030   H  -0.082975377554  -0.084735012271  0.295768980646
 H031   H  -0.121255641801  -0.001759634717  -0.417024622446
 H032   H  0.380503992917  -0.415264987729  -0.498240365283
 H033   H  -0.415264987729  -0.498240365283  0.380503992917
 H034   H  0.119496007083  -0.378744358199  0.204231019354
 H035   H  -0.378744358199  0.204231019354  0.119496007083
 H036   H  -0.417024622446  -0.121255641801  -0.001759634717
 H037   H  0.417024622446  -0.204231019354  0.415264987729
 H038   H  -0.119496007083  0.001759634717  0.084735012271
 H039   H  -0.380503992917  -0.295768980646  0.121255641801
 H040   H  0.082975377554  0.498240365283  0.378744358199
 H041   H  -0.204231019354  0.415264987729  0.417024622446
 H042   H  0.415264987729  0.417024622446  -0.204231019354
 H043   H  0.498240365283  0.378744358199  0.082975377554
 H044   H  0.084735012271  -0.119496007083  0.001759634717
 H045   H  0.001759634717  0.084735012271  -0.119496007083
 H046   H  0.121255641801  -0.380503992917  -0.295768980646
 H047   H  -0.295768980646  0.121255641801  -0.380503992917
 H048   H  0.378744358199  0.082975377554  0.498240365283
 H049   H  0.383301740975  -0.030078718502  -0.041926315959
 H050   H  -0.488152402543  0.425228056934  -0.458073684041
 H051   H  0.116698259025  0.074771943066  -0.413380459478
 H052   H  -0.011847597457  -0.469921281498  -0.086619540522
 H053   H  -0.041926315959  0.383301740975  -0.030078718502
 H054   H  -0.030078718502  -0.041926315959  0.383301740975
 H055   H  -0.086619540522  -0.011847597457  -0.469921281498
 H056   H  0.425228056934  -0.458073684041  -0.488152402543
 H057   H  -0.458073684041  -0.488152402543  0.425228056934
 H058   H  0.074771943066  -0.413380459478  0.116698259025
 H059   H  -0.413380459478  0.116698259025  0.074771943066
 H060   H  -0.469921281498  -0.086619540522  -0.011847597457
 H061   H  0.469921281498  -0.116698259025  0.458073684041
 H062   H  -0.074771943066  0.011847597457  0.041926315959
 H063   H  -0.425228056934  -0.383301740975  0.086619540522
 H064   H  0.030078718502  0.488152402543  0.413380459478
 H065   H  -0.116698259025  0.458073684041  0.469921281498
 H066   H  0.458073684041  0.469921281498  -0.116698259025
 H067   H  0.488152402543  0.413380459478  0.030078718502
 H068   H  0.041926315959  -0.074771943066  0.011847597457
 H069   H  0.011847597457  0.041926315959  -0.074771943066
 H070   H  0.086619540522  -0.425228056934  -0.383301740975
 H071   H  -0.383301740975  0.086619540522  -0.425228056934
 H072   H  0.413380459478  0.030078718502  0.488152402543
 H073   H  0.261388839647  -0.036775654282  -0.050265546422
 H074   H  -0.486510107860  0.311654386069  -0.449734453578
 H075   H  0.238611160353  0.188345613931  -0.298164493928
 H076   H  -0.013489892140  -0.463224345718  -0.201835506071
 H077   H  -0.050265546422  0.261388839647  -0.036775654282
 H078   H  -0.036775654282  -0.050265546422  0.261388839647
 H079   H  -0.201835506071  -0.013489892140  -0.463224345718
 H080   H  0.311654386069  -0.449734453578  -0.486510107860
 H081   H  -0.449734453578  -0.486510107860  0.311654386069
 H082   H  0.188345613931  -0.298164493928  0.238611160353
 H083   H  -0.298164493928  0.238611160353  0.188345613931
 H084   H  -0.463224345718  -0.201835506071  -0.013489892140
 H085   H  0.463224345718  -0.238611160353  0.449734453578
 H086   H  -0.188345613931  0.013489892140  0.050265546422
 H087   H  -0.311654386069  -0.261388839647  0.201835506071
 H088   H  0.036775654282  0.486510107860  0.298164493928
 H089   H  -0.238611160353  0.449734453578  0.463224345718
 H090   H  0.449734453578  0.463224345718  -0.238611160353
 H091   H  0.486510107860  0.298164493928  0.036775654282
 H092   H  0.050265546422  -0.188345613931  0.013489892140
 H093   H  0.013489892140  0.050265546422  -0.188345613931
 H094   H  0.201835506071  -0.311654386069  -0.261388839647
 H095   H  -0.261388839647  0.201835506071  -0.311654386069
 H096   H  0.298164493928  0.036775654282  0.486510107860
 C097   C  0.331079868022  0.018496424235  -0.007117564581
 C098   C  -0.474386011184  0.338197432603  -0.492882435419
 C099   C  0.168920131978  0.161802567397  -0.312583443786
 C100   C  -0.025613988816  0.481503575765  -0.187416556214
 C101   C  -0.007117564581  0.331079868022  0.018496424235
 C102   C  0.018496424235  -0.007117564581  0.331079868022
 C103   C  -0.187416556214  -0.025613988816  0.481503575765
 C104   C  0.338197432603  -0.492882435419  -0.474386011184
 C105   C  -0.492882435419  -0.474386011184  0.338197432603
 C106   C  0.161802567397  -0.312583443786  0.168920131978
 C107   C  -0.312583443786  0.168920131978  0.161802567397
 C108   C  0.481503575765  -0.187416556214  -0.025613988816
 C109   C  -0.481503575765  -0.168920131978  0.492882435419
 C110   C  -0.161802567397  0.025613988816  0.007117564581
 C111   C  -0.338197432603  -0.331079868022  0.187416556214
 C112   C  -0.018496424235  0.474386011184  0.312583443786
 C113   C  -0.168920131978  0.492882435419  -0.481503575765
 C114   C  0.492882435419  -0.481503575765  -0.168920131978
 C115   C  0.474386011184  0.312583443786  -0.018496424235
 C116   C  0.007117564581  -0.161802567397  0.025613988816
 C117   C  0.025613988816  0.007117564581  -0.161802567397
 C118   C  0.187416556214  -0.338197432603  -0.331079868022
 C119   C  -0.331079868022  0.187416556214  -0.338197432603
 C120   C  0.312583443786  -0.018496424235  0.474386011184
 C121   C  0.370794076286  0.021143388854  -0.005242900295
 C122   C  -0.473613710851  0.376036976581  -0.494757099705
 C123   C  0.129205923714  0.123963023419  -0.349650687432
 C124   C  -0.026386289149  0.478856611146  -0.150349312569
 C125   C  -0.005242900295  0.370794076286  0.021143388854
 C126   C  0.021143388854  -0.005242900295  0.370794076286
 C127   C  -0.150349312569  -0.026386289149  0.478856611146
 C128   C  0.376036976581  -0.494757099705  -0.473613710851
 C129   C  -0.494757099705  -0.473613710851  0.376036976581
 C130   C  0.123963023419  -0.349650687432  0.129205923714
 C131   C  -0.349650687432  0.129205923714  0.123963023419
 C132   C  0.478856611146  -0.150349312569  -0.026386289149
 C133   C  -0.478856611146  -0.129205923714  0.494757099705
 C134   C  -0.123963023419  0.026386289149  0.005242900295
 C135   C  -0.376036976581  -0.370794076286  0.150349312569
 C136   C  -0.021143388854  0.473613710851  0.349650687432
 C137   C  -0.129205923714  0.494757099705  -0.478856611146
 C138   C  0.494757099705  -0.478856611146  -0.129205923714
 C139   C  0.473613710851  0.349650687432  -0.021143388854
 C140   C  0.005242900295  -0.123963023419  0.026386289149
 C141   C  0.026386289149  0.005242900295  -0.123963023419
 C142   C  0.150349312569  -0.376036976581  -0.370794076286
 C143   C  -0.370794076286  0.150349312569  -0.376036976581
 C144   C  0.349650687432  -0.021143388854  0.473613710851
 C145   C  0.295680164059  -0.024463474450  -0.041168780368
 C146   C  -0.483294694082  0.336848944426  -0.458831219632
 C147   C  0.204319835941  0.163151055573  -0.320143638508
 C148   C  -0.016705305918  -0.475536525550  -0.179856361491
 C149   C  -0.041168780368  0.295680164059  -0.024463474450
 C150   C  -0.024463474450  -0.041168780368  0.295680164059
 C151   C  -0.179856361491  -0.016705305918  -0.475536525550
 C152   C  0.336848944426  -0.458831219632  -0.483294694082
 C153   C  -0.458831219632  -0.483294694082  0.336848944426
 C154   C  0.163151055573  -0.320143638508  0.204319835941
 C155   C  -0.320143638508  0.204319835941  0.163151055573
 C156   C  -0.475536525550  -0.179856361491  -0.016705305918
 C157   C  0.475536525550  -0.204319835941  0.458831219632
 C158   C  -0.163151055573  0.016705305918  0.041168780368
 C159   C  -0.336848944426  -0.295680164059  0.179856361491
 C160   C  0.024463474450  0.483294694082  0.320143638508
 C161   C  -0.204319835941  0.458831219632  0.475536525550
 C162   C  0.458831219632  0.475536525550  -0.204319835941
 C163   C  0.483294694082  0.320143638508  0.024463474450
 C164   C  0.041168780368  -0.163151055573  0.016705305918
 C165   C  0.016705305918  0.041168780368  -0.163151055573
 C166   C  0.179856361491  -0.336848944426  -0.295680164059
 C167   C  -0.295680164059  0.179856361491  -0.336848944426
 C168   C  0.320143638508  0.024463474450  0.483294694082
Fe169  Fe  0.340788611828  -0.027429468361  0.004854164360
Fe170  Fe  0.467716367279  0.335934447469  0.495145835640
Fe171  Fe  0.159211388172  0.164065552531  -0.368218080189
Fe172  Fe  0.032283632721  -0.472570531639  -0.131781919811
Fe173  Fe  0.004854164360  0.340788611828  -0.027429468361
Fe174  Fe  -0.027429468361  0.004854164360  0.340788611828
Fe175  Fe  -0.131781919811  0.032283632721  -0.472570531639
Fe176  Fe  0.335934447469  0.495145835640  0.467716367279
Fe177  Fe  0.495145835640  0.467716367279  0.335934447469
Fe178  Fe  0.164065552531  -0.368218080189  0.159211388172
Fe179  Fe  -0.368218080189  0.159211388172  0.164065552531
Fe180  Fe  -0.472570531639  -0.131781919811  0.032283632721
Fe181  Fe  0.472570531639  -0.159211388172  -0.495145835640
Fe182  Fe  -0.164065552531  -0.032283632721  -0.004854164360
Fe183  Fe  -0.335934447469  -0.340788611828  0.131781919811
Fe184  Fe  0.027429468361  -0.467716367279  0.368218080189
Fe185  Fe  -0.159211388172  -0.495145835640  0.472570531639
Fe186  Fe  -0.495145835640  0.472570531639  -0.159211388172
Fe187  Fe  -0.467716367279  0.368218080189  0.027429468361
Fe188  Fe  -0.004854164360  -0.164065552531  -0.032283632721
Fe189  Fe  -0.032283632721  -0.004854164360  -0.164065552531
Fe190  Fe  0.131781919811  -0.335934447469  -0.340788611828
Fe191  Fe  -0.340788611828  0.131781919811  -0.335934447469
Fe192  Fe  0.368218080189  0.027429468361  -0.467716367279
 H193   H  0.417067161692  0.019489875548  0.086143908984
 H194   H  0.433345966564  0.330923252708  0.413856091016
 H195   H  0.082932838308  0.169076747292  -0.397577286144
 H196   H  0.066654033435  0.480510124452  -0.102422713856
 H197   H  0.086143908984  0.417067161692  0.019489875548
 H198   H  0.019489875548  0.086143908984  0.417067161692
 H199   H  -0.102422713856  0.066654033435  0.480510124452
 H200   H  0.330923252708  0.413856091016  0.433345966564
 H201   H  0.413856091016  0.433345966564  0.330923252708
 H202   H  0.169076747292  -0.397577286144  0.082932838308
 H203   H  -0.397577286144  0.082932838308  0.169076747292
 H204   H  0.480510124452  -0.102422713856  0.066654033435
 H205   H  -0.480510124452  -0.082932838308  -0.413856091016
 H206   H  -0.169076747292  -0.066654033435  -0.086143908984
 H207   H  -0.330923252708  -0.417067161692  0.102422713856
 H208   H  -0.019489875548  -0.433345966564  0.397577286144
 H209   H  -0.082932838308  -0.413856091016  -0.480510124452
 H210   H  -0.413856091016  -0.480510124452  -0.082932838308
 H211   H  -0.433345966564  0.397577286144  -0.019489875548
 H212   H  -0.086143908984  -0.169076747292  -0.066654033435
 H213   H  -0.066654033435  -0.086143908984  -0.169076747292
 H214   H  0.102422713856  -0.330923252708  -0.417067161692
 H215   H  -0.417067161692  0.102422713856  -0.330923252708
 H216   H  0.397577286144  -0.019489875548  -0.433345966564
 C217   C  0.313578193488  -0.048462354152  -0.060006945027
 C218   C  -0.488455409125  0.373585138515  -0.439993054973
 C219   C  0.186421806512  0.126414861485  -0.362040547640
 C220   C  -0.011544590875  -0.451537645848  -0.137959452360
 C221   C  -0.060006945027  0.313578193488  -0.048462354152
 C222   C  -0.048462354152  -0.060006945027  0.313578193488
 C223   C  -0.137959452360  -0.011544590875  -0.451537645848
 C224   C  0.373585138515  -0.439993054973  -0.488455409125
 C225   C  -0.439993054973  -0.488455409125  0.373585138515
 C226   C  0.126414861485  -0.362040547640  0.186421806512
 C227   C  -0.362040547640  0.186421806512  0.126414861485
 C228   C  -0.451537645848  -0.137959452360  -0.011544590875
 C229   C  0.451537645848  -0.186421806512  0.439993054973
 C230   C  -0.126414861485  0.011544590875  0.060006945027
 C231   C  -0.373585138515  -0.313578193488  0.137959452360
 C232   C  0.048462354152  0.488455409125  0.362040547640
 C233   C  -0.186421806512  0.439993054973  0.451537645848
 C234   C  0.439993054973  0.451537645848  -0.186421806512
 C235   C  0.488455409125  0.362040547640  0.048462354152
 C236   C  0.060006945027  -0.126414861485  0.011544590875
 C237   C  0.011544590875  0.060006945027  -0.126414861485
 C238   C  0.137959452360  -0.373585138515  -0.313578193488
 C239   C  -0.313578193488  0.137959452360  -0.373585138515
 C240   C  0.362040547640  0.048462354152  0.488455409125
 H241   H  0.340579168102  0.007216246847  0.083947336970
 H242   H  0.423268909877  0.256631831132  0.416052663030
 H243   H  0.159420831898  0.243368168868  -0.333362921255
 H244   H  0.076731090123  0.492783753153  -0.166637078745
 H245   H  0.083947336970  0.340579168102  0.007216246847
 H246   H  0.007216246847  0.083947336970  0.340579168102
 H247   H  -0.166637078745  0.076731090123  0.492783753153
 H248   H  0.256631831132  0.416052663030  0.423268909877
 H249   H  0.416052663030  0.423268909877  0.256631831132
 H250   H  0.243368168868  -0.333362921255  0.159420831898
 H251   H  -0.333362921255  0.159420831898  0.243368168868
 H252   H  0.492783753153  -0.166637078745  0.076731090123
 H253   H  -0.492783753153  -0.159420831898  -0.416052663030
 H254   H  -0.243368168868  -0.076731090123  -0.083947336970
 H255   H  -0.256631831132  -0.340579168102  0.166637078745
 H256   H  -0.007216246847  -0.423268909877  0.333362921255
 H257   H  -0.159420831898  -0.416052663030  -0.492783753153
 H258   H  -0.416052663030  -0.492783753153  -0.159420831898
 H259   H  -0.423268909877  0.333362921255  -0.007216246847
 H260   H  -0.083947336970  -0.243368168868  -0.076731090123
 H261   H  -0.076731090123  -0.083947336970  -0.243368168868
 H262   H  0.166637078745  -0.256631831132  -0.340579168102
 H263   H  -0.340579168102  0.166637078745  -0.256631831132
 H264   H  0.333362921255  -0.007216246847  -0.423268909877
 C265   C  0.311449336074  -0.060745475455  0.029579800706
 C266   C  0.409674723840  0.281869535368  0.470420199294
 C267   C  0.188550663926  0.218130464632  -0.372194811529
 C268   C  0.090325276160  -0.439254524545  -0.127805188471
 C269   C  0.029579800706  0.311449336074  -0.060745475455
 C270   C  -0.060745475455  0.029579800706  0.311449336074
 C271   C  -0.127805188471  0.090325276160  -0.439254524545
 C272   C  0.281869535368  0.470420199294  0.409674723840
 C273   C  0.470420199294  0.409674723840  0.281869535368
 C274   C  0.218130464632  -0.372194811529  0.188550663926
 C275   C  -0.372194811529  0.188550663926  0.218130464632
 C276   C  -0.439254524545  -0.127805188471  0.090325276160
 C277   C  0.439254524545  -0.188550663926  -0.470420199294
 C278   C  -0.218130464632  -0.090325276160  -0.029579800706
 C279   C  -0.281869535368  -0.311449336074  0.127805188471
 C280   C  0.060745475455  -0.409674723840  0.372194811529
 C281   C  -0.188550663926  -0.470420199294  0.439254524545
 C282   C  -0.470420199294  0.439254524545  -0.188550663926
 C283   C  -0.409674723840  0.372194811529  0.060745475455
 C284   C  -0.029579800706  -0.218130464632  -0.090325276160
 C285   C  -0.090325276160  -0.029579800706  -0.218130464632
 C286   C  0.127805188471  -0.281869535368  -0.311449336074
 C287   C  -0.311449336074  0.127805188471  -0.281869535368
 C288   C  0.372194811529  0.060745475455  -0.409674723840
 C289   C  0.385638331227  -0.010690259483  0.064967746973
 C290   C  0.424341993545  0.320670584255  0.435032253027
 C291   C  0.114361668773  0.179329415745  -0.396328590710
 C292   C  0.075658006455  -0.489309740517  -0.103671409290
 C293   C  0.064967746973  0.385638331227  -0.010690259483
 C294   C  -0.010690259483  0.064967746973  0.385638331227
 C295   C  -0.103671409290  0.075658006455  -0.489309740517
 C296   C  0.320670584255  0.435032253027  0.424341993545
 C297   C  0.435032253027  0.424341993545  0.320670584255
 C298   C  0.179329415745  -0.396328590710  0.114361668773
 C299   C  -0.396328590710  0.114361668773  0.179329415745
 C300   C  -0.489309740517  -0.103671409290  0.075658006455
 C301   C  0.489309740517  -0.114361668773  -0.435032253027
 C302   C  -0.179329415745  -0.075658006455  -0.064967746973
 C303   C  -0.320670584255  -0.385638331227  0.103671409290
 C304   C  0.010690259483  -0.424341993545  0.396328590710
 C305   C  -0.114361668773  -0.435032253027  0.489309740517
 C306   C  -0.435032253027  0.489309740517  -0.114361668773
 C307   C  -0.424341993545  0.396328590710  0.010690259483
 C308   C  -0.064967746973  -0.179329415745  -0.075658006455
 C309   C  -0.075658006455  -0.064967746973  -0.179329415745
 C310   C  0.103671409290  -0.320670584255  -0.385638331227
 C311   C  -0.385638331227  0.103671409290  -0.320670584255
 C312   C  0.396328590710  0.010690259483  -0.424341993545
 C313   C  0.345270320568  -0.017369695841  0.063664551435
 C314   C  0.418965752724  0.281605769133  0.436335448565
 C315   C  0.154729679432  0.218394230867  -0.362640016409
 C316   C  0.081034247276  -0.482630304159  -0.137359983591
 C317   C  0.063664551435  0.345270320568  -0.017369695841
 C318   C  -0.017369695841  0.063664551435  0.345270320568
 C319   C  -0.137359983591  0.081034247276  -0.482630304159
 C320   C  0.281605769133  0.436335448565  0.418965752724
 C321   C  0.436335448565  0.418965752724  0.281605769133
 C322   C  0.218394230867  -0.362640016409  0.154729679432
 C323   C  -0.362640016409  0.154729679432  0.218394230867
 C324   C  -0.482630304159  -0.137359983591  0.081034247276
 C325   C  0.482630304159  -0.154729679432  -0.436335448565
 C326   C  -0.218394230867  -0.081034247276  -0.063664551435
 C327   C  -0.281605769133  -0.345270320568  0.137359983591
 C328   C  0.017369695841  -0.418965752724  0.362640016409
 C329   C  -0.154729679432  -0.436335448565  0.482630304159
 C330   C  -0.436335448565  0.482630304159  -0.154729679432
 C331   C  -0.418965752724  0.362640016409  0.017369695841
 C332   C  -0.063664551435  -0.218394230867  -0.081034247276
 C333   C  -0.081034247276  -0.063664551435  -0.218394230867
 C334   C  0.137359983591  -0.281605769133  -0.345270320568
 C335   C  -0.345270320568  0.137359983591  -0.281605769133
 C336   C  0.362640016409  0.017369695841  -0.418965752724
 H337   H  0.277149428728  -0.075313384382  0.020595059397
 H338   H  0.404091556222  0.256554369331  0.479404940603
 H339   H  0.222850571272  0.243445630669  -0.352462813110
 H340   H  0.095908443778  -0.424686615619  -0.147537186890
 H341   H  0.020595059397  0.277149428728  -0.075313384382
 H342   H  -0.075313384382  0.020595059397  0.277149428728
 H343   H  -0.147537186890  0.095908443778  -0.424686615619
 H344   H  0.256554369331  0.479404940603  0.404091556222
 H345   H  0.479404940603  0.404091556222  0.256554369331
 H346   H  0.243445630669  -0.352462813110  0.222850571272
 H347   H  -0.352462813110  0.222850571272  0.243445630669
 H348   H  -0.424686615619  -0.147537186890  0.095908443778
 H349   H  0.424686615619  -0.222850571272  -0.479404940603
 H350   H  -0.243445630669  -0.095908443778  -0.020595059397
 H351   H  -0.256554369331  -0.277149428728  0.147537186890
 H352   H  0.075313384382  -0.404091556222  0.352462813110
 H353   H  -0.222850571272  -0.479404940603  0.424686615619
 H354   H  -0.479404940603  0.424686615619  -0.222850571272
 H355   H  -0.404091556222  0.352462813110  0.075313384382
 H356   H  -0.020595059397  -0.243445630669  -0.095908443778
 H357   H  -0.095908443778  -0.020595059397  -0.243445630669
 H358   H  0.147537186890  -0.256554369331  -0.277149428728
 H359   H  -0.277149428728  0.147537186890  -0.256554369331
 H360   H  0.352462813110  0.075313384382  -0.404091556222
 H361   H  0.403656859252  0.048933677637  0.018245649043
 H362   H  -0.469311971406  0.385411210209  0.481754350957
 H363   H  0.096343140748  0.114588789791  -0.354723181615
 H364   H  -0.030688028594  0.451066322363  -0.145276818385
 H365   H  0.018245649043  0.403656859252  0.048933677637
 H366   H  0.048933677637  0.018245649043  0.403656859252
 H367   H  -0.145276818385  -0.030688028594  0.451066322363
 H368   H  0.385411210209  0.481754350957  -0.469311971406
 H369   H  0.481754350957  -0.469311971406  0.385411210209
 H370   H  0.114588789791  -0.354723181615  0.096343140748
 H371   H  -0.354723181615  0.096343140748  0.114588789791
 H372   H  0.451066322363  -0.145276818385  -0.030688028594
 H373   H  -0.451066322363  -0.096343140748  -0.481754350957
 H374   H  -0.114588789791  0.030688028594  -0.018245649043
 H375   H  -0.385411210209  -0.403656859252  0.145276818385
 H376   H  -0.048933677637  0.469311971406  0.354723181615
 H377   H  -0.096343140748  -0.481754350957  -0.451066322363
 H378   H  -0.481754350957  -0.451066322363  -0.096343140748
 H379   H  0.469311971406  0.354723181615  -0.048933677637
 H380   H  -0.018245649043  -0.114588789791  0.030688028594
 H381   H  0.030688028594  -0.018245649043  -0.114588789791
 H382   H  0.145276818385  -0.385411210209  -0.403656859252
 H383   H  -0.403656859252  0.145276818385  -0.385411210209
 H384   H  0.354723181615  -0.048933677637  0.469311971406
 O385   O  0.470447776539  0.014566542005  0.061482836166
 O386   O  0.453083705839  0.408964940372  0.438517163834
 O387   O  0.029552223462  0.091035059628  -0.455881234533
 O388   O  0.046916294161  0.485433457995  -0.044118765467
 O389   O  0.061482836166  0.470447776539  0.014566542005
 O390   O  0.014566542005  0.061482836166  0.470447776539
 O391   O  -0.044118765467  0.046916294161  0.485433457995
 O392   O  0.408964940372  0.438517163834  0.453083705839
 O393   O  0.438517163834  0.453083705839  0.408964940372
 O394   O  0.091035059628  -0.455881234533  0.029552223462
 O395   O  -0.455881234533  0.029552223462  0.091035059628
 O396   O  0.485433457995  -0.044118765467  0.046916294161
 O397   O  -0.485433457995  -0.029552223462  -0.438517163834
 O398   O  -0.091035059628  -0.046916294161  -0.061482836166
 O399   O  -0.408964940372  -0.470447776539  0.044118765467
 O400   O  -0.014566542005  -0.453083705839  0.455881234533
 O401   O  -0.029552223462  -0.438517163834  -0.485433457995
 O402   O  -0.438517163834  -0.485433457995  -0.029552223462
 O403   O  -0.453083705839  0.455881234533  -0.014566542005
 O404   O  -0.061482836166  -0.091035059628  -0.046916294161
 O405   O  -0.046916294161  -0.061482836166  -0.091035059628
 O406   O  0.044118765467  -0.408964940372  -0.470447776539
 O407   O  -0.470447776539  0.044118765467  -0.408964940372
 O408   O  0.455881234533  -0.014566542005  -0.453083705839
 H409   H  0.167485391417  -0.159395872237  -0.090171809658
 H410   H  0.430775937421  0.257657201075  -0.409828190342
 H411   H  0.332514608583  0.242342798925  -0.326881263654
 H412   H  0.069224062579  -0.340604127763  -0.173118736346
 H413   H  -0.090171809658  0.167485391417  -0.159395872237
 H414   H  -0.159395872237  -0.090171809658  0.167485391417
 H415   H  -0.173118736346  0.069224062579  -0.340604127763
 H416   H  0.257657201075  -0.409828190342  0.430775937421
 H417   H  -0.409828190342  0.430775937421  0.257657201075
 H418   H  0.242342798925  -0.326881263654  0.332514608583
 H419   H  -0.326881263654  0.332514608583  0.242342798925
 H420   H  -0.340604127763  -0.173118736346  0.069224062579
 H421   H  0.340604127763  -0.332514608583  0.409828190342
 H422   H  -0.242342798925  -0.069224062579  0.090171809658
 H423   H  -0.257657201075  -0.167485391417  0.173118736346
 H424   H  0.159395872237  -0.430775937421  0.326881263654
 H425   H  -0.332514608583  0.409828190342  0.340604127763
 H426   H  0.409828190342  0.340604127763  -0.332514608583
 H427   H  -0.430775937421  0.326881263654  0.159395872237
 H428   H  0.090171809658  -0.242342798925  -0.069224062579
 H429   H  -0.069224062579  0.090171809658  -0.242342798925
 H430   H  0.173118736346  -0.257657201075  -0.167485391417
 H431   H  -0.167485391417  0.173118736346  -0.257657201075
 H432   H  0.326881263654  0.159395872237  -0.430775937421
 H433   H  0.328645145543  -0.167022195652  -0.064790478983
 H434   H  0.397768283331  0.393435624526  -0.435209521017
 H435   H  0.171354854457  0.106564375474  -0.495667341195
 H436   H  0.102231716669  -0.332977804348  -0.004332658805
 H437   H  -0.064790478983  0.328645145543  -0.167022195652
 H438   H  -0.167022195652  -0.064790478983  0.328645145543
 H439   H  -0.004332658805  0.102231716669  -0.332977804348
 H440   H  0.393435624526  -0.435209521017  0.397768283331
 H441   H  -0.435209521017  0.397768283331  0.393435624526
 H442   H  0.106564375474  -0.495667341195  0.171354854457
 H443   H  -0.495667341195  0.171354854457  0.106564375474
 H444   H  -0.332977804348  -0.004332658805  0.102231716669
 H445   H  0.332977804348  -0.171354854457  0.435209521017
 H446   H  -0.106564375474  -0.102231716669  0.064790478983
 H447   H  -0.393435624526  -0.328645145543  0.004332658805
 H448   H  0.167022195652  -0.397768283331  0.495667341195
 H449   H  -0.171354854457  0.435209521017  0.332977804348
 H450   H  0.435209521017  0.332977804348  -0.171354854457
 H451   H  -0.397768283331  0.495667341195  0.167022195652
 H452   H  0.064790478983  -0.106564375474  -0.102231716669
 H453   H  -0.102231716669  0.064790478983  -0.106564375474
 H454   H  0.004332658805  -0.393435624526  -0.328645145543
 H455   H  -0.328645145543  0.004332658805  -0.393435624526
 H456   H  0.495667341195  0.167022195652  -0.397768283331
 C457   C  0.359999896853  -0.020247772604  -0.037747554482
 C458   C  -0.482500218123  0.397747451335  -0.462252445518
 C459   C  0.140000103147  0.102252548665  -0.380247669457
 C460   C  -0.017499781877  -0.479752227396  -0.119752330542
 C461   C  -0.037747554482  0.359999896853  -0.020247772604
 C462   C  -0.020247772604  -0.037747554482  0.359999896853
 C463   C  -0.119752330542  -0.017499781877  -0.479752227396
 C464   C  0.397747451335  -0.462252445518  -0.482500218123
 C465   C  -0.462252445518  -0.482500218123  0.397747451335
 C466   C  0.102252548665  -0.380247669457  0.140000103147
 C467   C  -0.380247669457  0.140000103147  0.102252548665
 C468   C  -0.479752227396  -0.119752330542  -0.017499781877
 C469   C  0.479752227396  -0.140000103147  0.462252445518
 C470   C  -0.102252548665  0.017499781877  0.037747554482
 C471   C  -0.397747451335  -0.359999896853  0.119752330542
 C472   C  0.020247772604  0.482500218123  0.380247669457
 C473   C  -0.140000103147  0.462252445518  0.479752227396
 C474   C  0.462252445518  0.479752227396  -0.140000103147
 C475   C  0.482500218123  0.380247669457  0.020247772604
 C476   C  0.037747554482  -0.102252548665  0.017499781877
 C477   C  0.017499781877  0.037747554482  -0.102252548665
 C478   C  0.119752330542  -0.397747451335  -0.359999896853
 C479   C  -0.359999896853  0.119752330542  -0.397747451335
 C480   C  0.380247669457  0.020247772604  0.482500218123
 H481   H  0.193004632618  -0.265161456911  -0.099821191353
 H482   H  0.334659734443  0.292825823971  -0.400178808647
 H483   H  0.306995367382  0.207174176029  -0.458166089529
 H484   H  0.165340265557  -0.234838543089  -0.041833910471
 H485   H  -0.099821191353  0.193004632618  -0.265161456911
 H486   H  -0.265161456911  -0.099821191353  0.193004632618
 H487   H  -0.041833910471  0.165340265557  -0.234838543089
 H488   H  0.292825823971  -0.400178808647  0.334659734443
 H489   H  -0.400178808647  0.334659734443  0.292825823971
 H490   H  0.207174176029  -0.458166089529  0.306995367382
 H491   H  -0.458166089529  0.306995367382  0.207174176029
 H492   H  -0.234838543089  -0.041833910471  0.165340265557
 H493   H  0.234838543089  -0.306995367382  0.400178808647
 H494   H  -0.207174176029  -0.165340265557  0.099821191353
 H495   H  -0.292825823971  -0.193004632618  0.041833910471
 H496   H  0.265161456911  -0.334659734443  0.458166089529
 H497   H  -0.306995367382  0.400178808647  0.234838543089
 H498   H  0.400178808647  0.234838543089  -0.306995367382
 H499   H  -0.334659734443  0.458166089529  0.265161456911
 H500   H  0.099821191353  -0.207174176029  -0.165340265557
 H501   H  -0.165340265557  0.099821191353  -0.207174176029
 H502   H  0.041833910471  -0.292825823971  -0.193004632618
 H503   H  -0.193004632618  0.041833910471  -0.292825823971
 H504   H  0.458166089529  0.265161456911  -0.334659734443
 H505   H  0.272795907768  -0.212811199011  -0.058242002813
 H506   H  0.345430803802  0.331037910582  -0.441757997187
 H507   H  0.227204092232  0.168962089418  -0.485607106779
 H508   H  0.154569196198  -0.287188800989  -0.014392893221
 H509   H  -0.058242002813  0.272795907768  -0.212811199011
 H510   H  -0.212811199011  -0.058242002813  0.272795907768
 H511   H  -0.014392893221  0.154569196198  -0.287188800989
 H512   H  0.331037910582  -0.441757997187  0.345430803802
 H513   H  -0.441757997187  0.345430803802  0.331037910582
 H514   H  0.168962089418  -0.485607106779  0.227204092232
 H515   H  -0.485607106779  0.227204092232  0.168962089418
 H516   H  -0.287188800989  -0.014392893221  0.154569196198
 H517   H  0.287188800989  -0.227204092232  0.441757997187
 H518   H  -0.168962089418  -0.154569196198  0.058242002813
 H519   H  -0.331037910582  -0.272795907768  0.014392893221
 H520   H  0.212811199011  -0.345430803802  0.485607106779
 H521   H  -0.227204092232  0.441757997187  0.287188800989
 H522   H  0.441757997187  0.287188800989  -0.227204092232
 H523   H  -0.345430803802  0.485607106779  0.212811199011
 H524   H  0.058242002813  -0.168962089418  -0.154569196198
 H525   H  -0.154569196198  0.058242002813  -0.168962089418
 H526   H  0.014392893221  -0.331037910582  -0.272795907768
 H527   H  -0.272795907768  0.014392893221  -0.331037910582
 H528   H  0.485607106779  0.212811199011  -0.345430803802
 H529   H  0.408673862479  -0.114741716499  -0.023452297226
 H530   H  0.408710580727  0.432126159705  -0.476547702774
 H531   H  0.091326137521  0.067873840295  0.476584421022
 H532   H  0.091289419273  -0.385258283501  0.023415578979
 H533   H  -0.023452297226  0.408673862479  -0.114741716499
 H534   H  -0.114741716499  -0.023452297226  0.408673862479
 H535   H  0.023415578979  0.091289419273  -0.385258283501
 H536   H  0.432126159705  -0.476547702774  0.408710580727
 H537   H  -0.476547702774  0.408710580727  0.432126159705
 H538   H  0.067873840295  0.476584421022  0.091326137521
 H539   H  0.476584421022  0.091326137521  0.067873840295
 H540   H  -0.385258283501  0.023415578979  0.091289419273
 H541   H  0.385258283501  -0.091326137521  0.476547702774
 H542   H  -0.067873840295  -0.091289419273  0.023452297226
 H543   H  -0.432126159705  -0.408673862479  -0.023415578979
 H544   H  0.114741716499  -0.408710580727  -0.476584421022
 H545   H  -0.091326137521  0.476547702774  0.385258283501
 H546   H  0.476547702774  0.385258283501  -0.091326137521
 H547   H  -0.408710580727  -0.476584421022  0.114741716499
 H548   H  0.023452297226  -0.067873840295  -0.091289419273
 H549   H  -0.091289419273  0.023452297226  -0.067873840295
 H550   H  -0.023415578979  -0.432126159705  -0.408673862479
 H551   H  -0.408673862479  -0.023415578979  -0.432126159705
 H552   H  -0.476584421022  0.114741716499  -0.408710580727
 H553   H  0.247304503344  -0.107503279462  -0.050706224280
 H554   H  0.443202944818  0.298010727624  -0.449293775720
 H555   H  0.252695496656  0.201989272376  -0.354807782806
 H556   H  0.056797055182  -0.392496720538  -0.145192217194
 H557   H  -0.050706224280  0.247304503344  -0.107503279462
 H558   H  -0.107503279462  -0.050706224280  0.247304503344
 H559   H  -0.145192217194  0.056797055182  -0.392496720538
 H560   H  0.298010727624  -0.449293775720  0.443202944818
 H561   H  -0.449293775720  0.443202944818  0.298010727624
 H562   H  0.201989272376  -0.354807782806  0.252695496656
 H563   H  -0.354807782806  0.252695496656  0.201989272376
 H564   H  -0.392496720538  -0.145192217194  0.056797055182
 H565   H  0.392496720538  -0.252695496656  0.449293775720
 H566   H  -0.201989272376  -0.056797055182  0.050706224280
 H567   H  -0.298010727624  -0.247304503344  0.145192217194
 H568   H  0.107503279462  -0.443202944818  0.354807782806
 H569   H  -0.252695496656  0.449293775720  0.392496720538
 H570   H  0.449293775720  0.392496720538  -0.252695496656
 H571   H  -0.443202944818  0.354807782806  0.107503279462
 H572   H  0.050706224280  -0.201989272376  -0.056797055182
 H573   H  -0.056797055182  0.050706224280  -0.201989272376
 H574   H  0.145192217194  -0.298010727624  -0.247304503344
 H575   H  -0.247304503344  0.145192217194  -0.298010727624
 H576   H  0.354807782806  0.107503279462  -0.443202944818
 C577   C  0.204869771417  -0.230558195544  -0.089741283222
 C578   C  0.359183087677  0.294611054638  -0.410258716779
 C579   C  0.295130228584  0.205388945362  -0.435427966961
 C580   C  0.140816912323  -0.269441804455  -0.064572033039
 C581   C  -0.089741283222  0.204869771417  -0.230558195544
 C582   C  -0.230558195544  -0.089741283222  0.204869771417
 C583   C  -0.064572033039  0.140816912323  -0.269441804455
 C584   C  0.294611054638  -0.410258716779  0.359183087677
 C585   C  -0.410258716779  0.359183087677  0.294611054638
 C586   C  0.205388945362  -0.435427966961  0.295130228584
 C587   C  -0.435427966961  0.295130228584  0.205388945362
 C588   C  -0.269441804455  -0.064572033039  0.140816912323
 C589   C  0.269441804455  -0.295130228584  0.410258716779
 C590   C  -0.205388945362  -0.140816912323  0.089741283222
 C591   C  -0.294611054638  -0.204869771417  0.064572033039
 C592   C  0.230558195544  -0.359183087677  0.435427966961
 C593   C  -0.295130228584  0.410258716779  0.269441804455
 C594   C  0.410258716779  0.269441804455  -0.295130228584
 C595   C  -0.359183087677  0.435427966961  0.230558195544
 C596   C  0.089741283222  -0.205388945362  -0.140816912323
 C597   C  -0.140816912323  0.089741283222  -0.205388945362
 C598   C  0.064572033039  -0.294611054638  -0.204869771417
 C599   C  -0.204869771417  0.064572033039  -0.294611054638
 C600   C  0.435427966961  0.230558195544  -0.359183087677
 C601   C  0.265742347269  -0.156282565457  -0.051443438583
 C602   C  0.395160873126  0.317185785852  -0.448556561417
 C603   C  0.234257652731  0.182814214148  -0.422024912726
 C604   C  0.104839126874  -0.343717434543  -0.077975087274
 C605   C  -0.051443438583  0.265742347269  -0.156282565457
 C606   C  -0.156282565457  -0.051443438583  0.265742347269
 C607   C  -0.077975087274  0.104839126874  -0.343717434543
 C608   C  0.317185785852  -0.448556561417  0.395160873126
 C609   C  -0.448556561417  0.395160873126  0.317185785852
 C610   C  0.182814214148  -0.422024912726  0.234257652731
 C611   C  -0.422024912726  0.234257652731  0.182814214148
 C612   C  -0.343717434543  -0.077975087274  0.104839126874
 C613   C  0.343717434543  -0.234257652731  0.448556561417
 C614   C  -0.182814214148  -0.104839126874  0.051443438583
 C615   C  -0.317185785852  -0.265742347269  0.077975087274
 C616   C  0.156282565457  -0.395160873126  0.422024912726
 C617   C  -0.234257652731  0.448556561417  0.343717434543
 C618   C  0.448556561417  0.343717434543  -0.234257652731
 C619   C  -0.395160873126  0.422024912726  0.156282565457
 C620   C  0.051443438583  -0.182814214148  -0.104839126874
 C621   C  -0.104839126874  0.051443438583  -0.182814214148
 C622   C  0.077975087274  -0.317185785852  -0.265742347269
 C623   C  -0.265742347269  0.077975087274  -0.317185785852
 C624   C  0.422024912726  0.156282565457  -0.395160873126
 C625   C  0.174241430232  -0.216324520624  -0.098943297504
 C626   C  0.382618776879  0.273184727735  -0.401056702496
 C627   C  0.325758569768  0.226815272265  -0.390565950856
 C628   C  0.117381223121  -0.283675479376  -0.109434049144
 C629   C  -0.098943297504  0.174241430232  -0.216324520624
 C630   C  -0.216324520624  -0.098943297504  0.174241430232
 C631   C  -0.109434049144  0.117381223121  -0.283675479376
 C632   C  0.273184727735  -0.401056702496  0.382618776879
 C633   C  -0.401056702496  0.382618776879  0.273184727735
 C634   C  0.226815272265  -0.390565950856  0.325758569768
 C635   C  -0.390565950856  0.325758569768  0.226815272265
 C636   C  -0.283675479376  -0.109434049144  0.117381223121
 C637   C  0.283675479376  -0.325758569768  0.401056702496
 C638   C  -0.226815272265  -0.117381223121  0.098943297504
 C639   C  -0.273184727735  -0.174241430232  0.109434049144
 C640   C  0.216324520624  -0.382618776879  0.390565950856
 C641   C  -0.325758569768  0.401056702496  0.283675479376
 C642   C  0.401056702496  0.283675479376  -0.325758569768
 C643   C  -0.382618776879  0.390565950856  0.216324520624
 C644   C  0.098943297504  -0.226815272265  -0.117381223121
 C645   C  -0.117381223121  0.098943297504  -0.226815272265
 C646   C  0.109434049144  -0.273184727735  -0.174241430232
 C647   C  -0.174241430232  0.109434049144  -0.273184727735
 C648   C  0.390565950856  0.216324520624  -0.382618776879
 C649   C  0.190341884297  -0.171615327585  -0.084206055946
 C650   C  0.412590728360  0.274547940242  -0.415793944054
 C651   C  0.309658115703  0.225452059758  -0.361957211882
 C652   C  0.087409271640  -0.328384672415  -0.138042788118
 C653   C  -0.084206055946  0.190341884297  -0.171615327585
 C654   C  -0.171615327585  -0.084206055946  0.190341884297
 C655   C  -0.138042788118  0.087409271640  -0.328384672415
 C656   C  0.274547940242  -0.415793944054  0.412590728360
 C657   C  -0.415793944054  0.412590728360  0.274547940242
 C658   C  0.225452059758  -0.361957211882  0.309658115703
 C659   C  -0.361957211882  0.309658115703  0.225452059758
 C660   C  -0.328384672415  -0.138042788118  0.087409271640
 C661   C  0.328384672415  -0.309658115703  0.415793944054
 C662   C  -0.225452059758  -0.087409271640  0.084206055946
 C663   C  -0.274547940242  -0.190341884297  0.138042788118
 C664   C  0.171615327585  -0.412590728360  0.361957211882
 C665   C  -0.309658115703  0.415793944054  0.328384672415
 C666   C  0.415793944054  0.328384672415  -0.309658115703
 C667   C  -0.412590728360  0.361957211882  0.171615327585
 C668   C  0.084206055946  -0.225452059758  -0.087409271640
 C669   C  -0.087409271640  0.084206055946  -0.225452059758
 C670   C  0.138042788118  -0.274547940242  -0.190341884297
 C671   C  -0.190341884297  0.138042788118  -0.274547940242
 C672   C  0.361957211882  0.171615327585  -0.412590728360
 C673   C  0.406130267301  -0.062778845501  0.019968625301
 C674   C  0.417252529198  0.386161642001  0.480031374699
 C675   C  0.093869732699  0.113838357999  -0.468909112803
 C676   C  0.082747470802  -0.437221154499  -0.031090887197
 C677   C  0.019968625301  0.406130267301  -0.062778845501
 C678   C  -0.062778845501  0.019968625301  0.406130267301
 C679   C  -0.031090887197  0.082747470802  -0.437221154499
 C680   C  0.386161642001  0.480031374699  0.417252529198
 C681   C  0.480031374699  0.417252529198  0.386161642001
 C682   C  0.113838357999  -0.468909112803  0.093869732699
 C683   C  -0.468909112803  0.093869732699  0.113838357999
 C684   C  -0.437221154499  -0.031090887197  0.082747470802
 C685   C  0.437221154499  -0.093869732699  -0.480031374699
 C686   C  -0.113838357999  -0.082747470802  -0.019968625301
 C687   C  -0.386161642001  -0.406130267301  0.031090887197
 C688   C  0.062778845501  -0.417252529198  0.468909112803
 C689   C  -0.093869732699  -0.480031374699  0.437221154499
 C690   C  -0.480031374699  0.437221154499  -0.093869732699
 C691   C  -0.417252529198  0.468909112803  0.062778845501
 C692   C  -0.019968625301  -0.113838357999  -0.082747470802
 C693   C  -0.082747470802  -0.019968625301  -0.113838357999
 C694   C  0.031090887197  -0.386161642001  -0.406130267301
 C695   C  -0.406130267301  0.031090887197  -0.386161642001
 C696   C  0.468909112803  0.062778845501  -0.417252529198
 C697   C  0.331112596087  -0.082182781385  0.010057226768
 C698   C  0.407759991847  0.321055369319  0.489942773232
 C699   C  0.168887403913  0.178944630681  -0.413295377472
 C700   C  0.092240008153  -0.417817218615  -0.086704622528
 C701   C  0.010057226768  0.331112596087  -0.082182781385
 C702   C  -0.082182781385  0.010057226768  0.331112596087
 C703   C  -0.086704622528  0.092240008153  -0.417817218615
 C704   C  0.321055369319  0.489942773232  0.407759991847
 C705   C  0.489942773232  0.407759991847  0.321055369319
 C706   C  0.178944630681  -0.413295377472  0.168887403913
 C707   C  -0.413295377472  0.168887403913  0.178944630681
 C708   C  -0.417817218615  -0.086704622528  0.092240008153
 C709   C  0.417817218615  -0.168887403913  -0.489942773232
 C710   C  -0.178944630681  -0.092240008153  -0.010057226768
 C711   C  -0.321055369319  -0.331112596087  0.086704622528
 C712   C  0.082182781385  -0.407759991847  0.413295377472
 C713   C  -0.168887403913  -0.489942773232  0.417817218615
 C714   C  -0.489942773232  0.417817218615  -0.168887403913
 C715   C  -0.407759991847  0.413295377472  0.082182781385
 C716   C  -0.010057226768  -0.178944630681  -0.092240008153
 C717   C  -0.092240008153  -0.010057226768  -0.178944630681
 C718   C  0.086704622528  -0.321055369319  -0.331112596087
 C719   C  -0.331112596087  0.086704622528  -0.321055369319
 C720   C  0.413295377472  0.082182781385  -0.407759991847
 C721   C  0.249662155080  -0.201211675697  -0.066472913994
 C722   C  0.365261238296  0.316135069073  -0.433527086006
 C723   C  0.250337844920  0.183864930927  -0.450873830777
 C724   C  0.134738761704  -0.298788324303  -0.049126169223
 C725   C  -0.066472913994  0.249662155080  -0.201211675697
 C726   C  -0.201211675697  -0.066472913994  0.249662155080
 C727   C  -0.049126169223  0.134738761704  -0.298788324303
 C728   C  0.316135069073  -0.433527086006  0.365261238296
 C729   C  -0.433527086006  0.365261238296  0.316135069073
 C730   C  0.183864930927  -0.450873830777  0.250337844920
 C731   C  -0.450873830777  0.250337844920  0.183864930927
 C732   C  -0.298788324303  -0.049126169223  0.134738761704
 C733   C  0.298788324303  -0.250337844920  0.433527086006
 C734   C  -0.183864930927  -0.134738761704  0.066472913994
 C735   C  -0.316135069073  -0.249662155080  0.049126169223
 C736   C  0.201211675697  -0.365261238296  0.450873830777
 C737   C  -0.250337844920  0.433527086006  0.298788324303
 C738   C  0.433527086006  0.298788324303  -0.250337844920
 C739   C  -0.365261238296  0.450873830777  0.201211675697
 C740   C  0.066472913994  -0.183864930927  -0.134738761704
 C741   C  -0.134738761704  0.066472913994  -0.183864930927
 C742   C  0.049126169223  -0.316135069073  -0.249662155080
 C743   C  -0.249662155080  0.049126169223  -0.316135069073
 C744   C  0.450873830777  0.201211675697  -0.365261238296
 C745   C  0.313145334197  -0.124854617955  -0.026329898974
 C746   C  0.401475281019  0.339475233171  -0.473670101026
 C747   C  0.186854665803  0.160524766829  -0.437999952152
 C748   C  0.098524718981  -0.375145382045  -0.062000047848
 C749   C  -0.026329898974  0.313145334197  -0.124854617955
 C750   C  -0.124854617955  -0.026329898974  0.313145334197
 C751   C  -0.062000047848  0.098524718981  -0.375145382045
 C752   C  0.339475233171  -0.473670101026  0.401475281019
 C753   C  -0.473670101026  0.401475281019  0.339475233171
 C754   C  0.160524766829  -0.437999952152  0.186854665803
 C755   C  -0.437999952152  0.186854665803  0.160524766829
 C756   C  -0.375145382045  -0.062000047848  0.098524718981
 C757   C  0.375145382045  -0.186854665803  0.473670101026
 C758   C  -0.160524766829  -0.098524718981  0.026329898974
 C759   C  -0.339475233171  -0.313145334197  0.062000047848
 C760   C  0.124854617955  -0.401475281019  0.437999952152
 C761   C  -0.186854665803  0.473670101026  0.375145382045
 C762   C  0.473670101026  0.375145382045  -0.186854665803
 C763   C  -0.401475281019  0.437999952152  0.124854617955
 C764   C  0.026329898974  -0.160524766829  -0.098524718981
 C765   C  -0.098524718981  0.026329898974  -0.160524766829
 C766   C  0.062000047848  -0.339475233171  -0.313145334197
 C767   C  -0.313145334197  0.062000047848  -0.339475233171
 C768   C  0.437999952152  0.124854617955  -0.401475281019
 C769   C  0.235216338116  -0.142176615235  -0.061174731198
 C770   C  0.418998115964  0.296391069314  -0.438825268802
 C771   C  0.264783661884  0.203608930686  -0.377392953351
 C772   C  0.081001884036  -0.357823384765  -0.122607046649
 C773   C  -0.061174731198  0.235216338116  -0.142176615235
 C774   C  -0.142176615235  -0.061174731198  0.235216338116
 C775   C  -0.122607046649  0.081001884036  -0.357823384765
 C776   C  0.296391069314  -0.438825268802  0.418998115964
 C777   C  -0.438825268802  0.418998115964  0.296391069314
 C778   C  0.203608930686  -0.377392953351  0.264783661884
 C779   C  -0.377392953351  0.264783661884  0.203608930686
 C780   C  -0.357823384765  -0.122607046649  0.081001884036
 C781   C  0.357823384765  -0.264783661884  0.438825268802
 C782   C  -0.203608930686  -0.081001884036  0.061174731198
 C783   C  -0.296391069314  -0.235216338116  0.122607046649
 C784   C  0.142176615235  -0.418998115964  0.377392953351
 C785   C  -0.264783661884  0.438825268802  0.357823384765
 C786   C  0.438825268802  0.357823384765  -0.264783661884
 C787   C  -0.418998115964  0.377392953351  0.142176615235
 C788   C  0.061174731198  -0.203608930686  -0.081001884036
 C789   C  -0.081001884036  0.061174731198  -0.203608930686
 C790   C  0.122607046649  -0.296391069314  -0.235216338116
 C791   C  -0.235216338116  0.122607046649  -0.296391069314
 C792   C  0.377392953351  0.142176615235  -0.418998115964
 C793   C  0.387549275420  -0.104808171099  -0.013611212322
 C794   C  0.408803041223  0.401160487742  -0.486388787678
 C795   C  0.112450724580  0.098839512258  -0.492357446519
 C796   C  0.091196958777  -0.395191828901  -0.007642553481
 C797   C  -0.013611212322  0.387549275420  -0.104808171099
 C798   C  -0.104808171099  -0.013611212322  0.387549275420
 C799   C  -0.007642553481  0.091196958777  -0.395191828901
 C800   C  0.401160487742  -0.486388787678  0.408803041223
 C801   C  -0.486388787678  0.408803041223  0.401160487742
 C802   C  0.098839512258  -0.492357446519  0.112450724580
 C803   C  -0.492357446519  0.112450724580  0.098839512258
 C804   C  -0.395191828901  -0.007642553481  0.091196958777
 C805   C  0.395191828901  -0.112450724580  0.486388787678
 C806   C  -0.098839512258  -0.091196958777  0.013611212322
 C807   C  -0.401160487742  -0.387549275420  0.007642553481
 C808   C  0.104808171099  -0.408803041223  0.492357446519
 C809   C  -0.112450724580  0.486388787678  0.395191828901
 C810   C  0.486388787678  0.395191828901  -0.112450724580
 C811   C  -0.408803041223  0.492357446519  0.104808171099
 C812   C  0.013611212322  -0.098839512258  -0.091196958777
 C813   C  -0.091196958777  0.013611212322  -0.098839512258
 C814   C  0.007642553481  -0.401160487742  -0.387549275420
 C815   C  -0.387549275420  0.007642553481  -0.401160487742
 C816   C  0.492357446519  0.104808171099  -0.408803041223
 C817   C  0.377491336442  -0.050947205536  0.032431337924
 C818   C  0.416621456540  0.345059998518  0.467568662076
 C819   C  0.122508663558  0.154940001482  -0.428438541978
 C820   C  0.083378543460  -0.449052794464  -0.071561458022
 C821   C  0.032431337924  0.377491336442  -0.050947205536
 C822   C  -0.050947205536  0.032431337924  0.377491336442
 C823   C  -0.071561458022  0.083378543460  -0.449052794464
 C824   C  0.345059998518  0.467568662076  0.416621456540
 C825   C  0.467568662076  0.416621456540  0.345059998518
 C826   C  0.154940001482  -0.428438541978  0.122508663558
 C827   C  -0.428438541978  0.122508663558  0.154940001482
 C828   C  -0.449052794464  -0.071561458022  0.083378543460
 C829   C  0.449052794464  -0.122508663558  -0.467568662076
 C830   C  -0.154940001482  -0.083378543460  -0.032431337924
 C831   C  -0.345059998518  -0.377491336442  0.071561458022
 C832   C  0.050947205536  -0.416621456540  0.428438541978
 C833   C  -0.122508663558  -0.467568662076  0.449052794464
 C834   C  -0.467568662076  0.449052794464  -0.122508663558
 C835   C  -0.416621456540  0.428438541978  0.050947205536
 C836   C  -0.032431337924  -0.154940001482  -0.083378543460
 C837   C  -0.083378543460  -0.032431337924  -0.154940001482
 C838   C  0.071561458022  -0.345059998518  -0.377491336442
 C839   C  -0.377491336442  0.071561458022  -0.345059998518
 C840   C  0.428438541978  0.050947205536  -0.416621456540
 B841   B  0.455335882200  -0.029930228340  0.042953787045
 B842   B  0.427115984615  0.412382095155  0.457046212955
 B843   B  0.044664117800  0.087617904845  -0.485266110540
 B844   B  0.072884015385  -0.470069771660  -0.014733889460
 B845   B  0.042953787045  0.455335882200  -0.029930228340
 B846   B  -0.029930228340  0.042953787045  0.455335882200
 B847   B  -0.014733889460  0.072884015385  -0.470069771660
 B848   B  0.412382095155  0.457046212955  0.427115984615
 B849   B  0.457046212955  0.427115984615  0.412382095155
 B850   B  0.087617904845  -0.485266110540  0.044664117800
 B851   B  -0.485266110540  0.044664117800  0.087617904845
 B852   B  -0.470069771660  -0.014733889460  0.072884015385
 B853   B  0.470069771660  -0.044664117800  -0.457046212955
 B854   B  -0.087617904845  -0.072884015385  -0.042953787045
 B855   B  -0.412382095155  -0.455335882200  0.014733889460
 B856   B  0.029930228340  -0.427115984615  0.485266110540
 B857   B  -0.044664117800  -0.457046212955  0.470069771660
 B858   B  -0.457046212955  0.470069771660  -0.044664117800
 B859   B  -0.427115984615  0.485266110540  0.029930228340
 B860   B  -0.042953787045  -0.087617904845  -0.072884015385
 B861   B  -0.072884015385  -0.042953787045  -0.087617904845
 B862   B  0.014733889460  -0.412382095155  -0.455335882200
 B863   B  -0.455335882200  0.014733889460  -0.412382095155
 B864   B  0.485266110540  0.029930228340  -0.427115984615
 C865   C  0.341835989708  -0.135111153131  -0.036813588292
 C866   C  0.401702435161  0.378649578000  -0.463186411708
 C867   C  0.158164010292  0.121350422000  -0.476947142840
 C868   C  0.098297564839  -0.364888846868  -0.023052857160
 C869   C  -0.036813588292  0.341835989708  -0.135111153131
 C870   C  -0.135111153131  -0.036813588292  0.341835989708
 C871   C  -0.023052857160  0.098297564839  -0.364888846868
 C872   C  0.378649578000  -0.463186411708  0.401702435161
 C873   C  -0.463186411708  0.401702435161  0.378649578000
 C874   C  0.121350422000  -0.476947142840  0.158164010292
 C875   C  -0.476947142840  0.158164010292  0.121350422000
 C876   C  -0.364888846868  -0.023052857160  0.098297564839
 C877   C  0.364888846868  -0.158164010292  0.463186411708
 C878   C  -0.121350422000  -0.098297564839  0.036813588292
 C879   C  -0.378649578000  -0.341835989708  0.023052857160
 C880   C  0.135111153131  -0.401702435161  0.476947142840
 C881   C  -0.158164010292  0.463186411708  0.364888846868
 C882   C  0.463186411708  0.364888846868  -0.158164010292
 C883   C  -0.401702435161  0.476947142840  0.135111153131
 C884   C  0.036813588292  -0.121350422000  -0.098297564839
 C885   C  -0.098297564839  0.036813588292  -0.121350422000
 C886   C  0.023052857160  -0.378649578000  -0.341835989708
 C887   C  -0.341835989708  0.023052857160  -0.378649578000
 C888   C  0.476947142840  0.135111153131  -0.401702435161
 C889   C  0.250000000000  -0.375000000000  0.375000000000
 C890   C  -0.250000000000  -0.125000000000  0.125000000000
 C891   C  0.375000000000  0.250000000000  -0.375000000000
 C892   C  -0.375000000000  0.375000000000  0.250000000000
 C893   C  0.125000000000  -0.250000000000  -0.125000000000
 C894   C  -0.125000000000  0.125000000000  -0.250000000000
