data_Staggered_MSUCOF-4-MnCp_BULK_OPTGEOM_DZ_optimized.outout

_cell_length_a                         37.26427075
_cell_length_b                         37.26427075
_cell_length_c                         37.26427075
_cell_angle_alpha                      109.47122100
_cell_angle_beta                       109.47122100
_cell_angle_gamma                      109.47122100
_symmetry_space_group_name_H-M         'P 1'
_symmetry_Int_Tables_number            1

loop_
_symmetry_equiv_pos_as_xyz
   'x, y, z'

loop_
   _atom_site_label
   _atom_site_type_symbol
   _atom_site_fract_x
   _atom_site_fract_y
   _atom_site_fract_z
 H001   H  0.048610330146  0.017314705229  0.332338964457
 H002   H  0.184975740773  -0.283728634310  0.167661035544
 H003   H  0.451389669854  -0.216271365690  -0.031295624917
 H004   H  0.315024259227  0.482685294771  -0.468704375083
 H005   H  0.332338964457  0.048610330146  0.017314705229
 H006   H  0.017314705229  0.332338964457  0.048610330146
 H007   H  -0.468704375083  0.315024259227  0.482685294771
 H008   H  -0.283728634310  0.167661035544  0.184975740773
 H009   H  0.167661035544  0.184975740773  -0.283728634310
 H010   H  -0.216271365690  -0.031295624917  0.451389669854
 H011   H  -0.031295624917  0.451389669854  -0.216271365690
 H012   H  0.482685294771  -0.468704375083  0.315024259227
 H013   H  -0.482685294771  -0.451389669854  -0.167661035544
 H014   H  0.216271365690  -0.315024259227  -0.332338964457
 H015   H  0.283728634310  -0.048610330146  0.468704375083
 H016   H  -0.017314705229  -0.184975740773  0.031295624917
 H017   H  -0.451389669854  -0.167661035544  -0.482685294771
 H018   H  -0.167661035544  -0.482685294771  -0.451389669854
 H019   H  -0.184975740773  0.031295624917  -0.017314705229
 H020   H  -0.332338964457  0.216271365690  -0.315024259227
 H021   H  -0.315024259227  -0.332338964457  0.216271365690
 H022   H  0.468704375083  0.283728634310  -0.048610330146
 H023   H  -0.048610330146  0.468704375083  0.283728634310
 H024   H  0.031295624917  -0.017314705229  -0.184975740773
 H025   H  -0.077929136994  -0.090683764597  0.289807502946
 H026   H  0.119508732457  -0.367736639940  0.210192497054
 H027   H  -0.422070863006  -0.132263360060  -0.012754627603
 H028   H  0.380491267543  -0.409316235403  -0.487245372397
 H029   H  0.289807502946  -0.077929136994  -0.090683764597
 H030   H  -0.090683764597  0.289807502946  -0.077929136994
 H031   H  -0.487245372397  0.380491267543  -0.409316235403
 H032   H  -0.367736639940  0.210192497054  0.119508732457
 H033   H  0.210192497054  0.119508732457  -0.367736639940
 H034   H  -0.132263360060  -0.012754627603  -0.422070863006
 H035   H  -0.012754627603  -0.422070863006  -0.132263360060
 H036   H  -0.409316235403  -0.487245372397  0.380491267543
 H037   H  0.409316235403  0.422070863006  -0.210192497054
 H038   H  0.132263360060  -0.380491267543  -0.289807502946
 H039   H  0.367736639940  0.077929136994  0.487245372397
 H040   H  0.090683764597  -0.119508732457  0.012754627603
 H041   H  0.422070863006  -0.210192497054  0.409316235403
 H042   H  -0.210192497054  0.409316235403  0.422070863006
 H043   H  -0.119508732457  0.012754627603  0.090683764597
 H044   H  -0.289807502946  0.132263360060  -0.380491267543
 H045   H  -0.380491267543  -0.289807502946  0.132263360060
 H046   H  0.487245372397  0.367736639940  0.077929136994
 H047   H  0.077929136994  0.487245372397  0.367736639940
 H048   H  0.012754627603  0.090683764597  -0.119508732457
 H049   H  -0.030451452528  -0.050619689841  0.377540646771
 H050   H  0.071839663388  -0.407992099299  0.122459353229
 H051   H  -0.469548547472  -0.092007900701  -0.020168237313
 H052   H  0.428160336612  -0.449380310158  -0.479831762687
 H053   H  0.377540646771  -0.030451452528  -0.050619689841
 H054   H  -0.050619689841  0.377540646771  -0.030451452528
 H055   H  -0.479831762687  0.428160336612  -0.449380310158
 H056   H  -0.407992099299  0.122459353229  0.071839663388
 H057   H  0.122459353229  0.071839663388  -0.407992099299
 H058   H  -0.092007900701  -0.020168237313  -0.469548547472
 H059   H  -0.020168237313  -0.469548547472  -0.092007900701
 H060   H  -0.449380310158  -0.479831762687  0.428160336612
 H061   H  0.449380310158  0.469548547472  -0.122459353229
 H062   H  0.092007900701  -0.428160336612  -0.377540646771
 H063   H  0.407992099299  0.030451452528  0.479831762687
 H064   H  0.050619689841  -0.071839663388  0.020168237313
 H065   H  0.469548547472  -0.122459353229  0.449380310158
 H066   H  -0.122459353229  0.449380310158  0.469548547472
 H067   H  -0.071839663388  0.020168237313  0.050619689841
 H068   H  -0.377540646771  0.092007900701  -0.428160336612
 H069   H  -0.428160336612  -0.377540646771  0.092007900701
 H070   H  0.479831762687  0.407992099299  0.030451452528
 H071   H  0.030451452528  0.479831762687  0.407992099299
 H072   H  0.020168237313  0.050619689841  -0.071839663388
 H073   H  -0.029567069575  -0.049057088044  0.261472852556
 H074   H  0.189470059400  -0.291039922131  0.238527147444
 H075   H  -0.470432930425  -0.208960077869  -0.019490018469
 H076   H  0.310529940600  -0.450942911956  -0.480509981531
 H077   H  0.261472852556  -0.029567069575  -0.049057088044
 H078   H  -0.049057088044  0.261472852556  -0.029567069575
 H079   H  -0.480509981531  0.310529940600  -0.450942911956
 H080   H  -0.291039922131  0.238527147444  0.189470059400
 H081   H  0.238527147444  0.189470059400  -0.291039922131
 H082   H  -0.208960077869  -0.019490018469  -0.470432930425
 H083   H  -0.019490018469  -0.470432930425  -0.208960077869
 H084   H  -0.450942911956  -0.480509981531  0.310529940600
 H085   H  0.450942911956  0.470432930425  -0.238527147444
 H086   H  0.208960077869  -0.310529940600  -0.261472852556
 H087   H  0.291039922131  0.029567069575  0.480509981531
 H088   H  0.049057088044  -0.189470059400  0.019490018469
 H089   H  0.470432930425  -0.238527147444  0.450942911956
 H090   H  -0.238527147444  0.450942911956  0.470432930425
 H091   H  -0.189470059400  0.019490018469  0.049057088044
 H092   H  -0.261472852556  0.208960077869  -0.310529940600
 H093   H  -0.310529940600  -0.261472852556  0.208960077869
 H094   H  0.480509981531  0.291039922131  0.029567069575
 H095   H  0.029567069575  0.480509981531  0.291039922131
 H096   H  0.019490018469  0.049057088044  -0.189470059400
 C097   C  0.022014395142  -0.005774355739  0.332812876478
 C098   C  0.161412767784  -0.310798481335  0.167187123523
 C099   C  0.477985604858  -0.189201518665  -0.027788750881
 C100   C  0.338587232216  -0.494225644261  -0.472211249119
 C101   C  0.332812876478  0.022014395142  -0.005774355739
 C102   C  -0.005774355739  0.332812876478  0.022014395142
 C103   C  -0.472211249119  0.338587232216  -0.494225644261
 C104   C  -0.310798481335  0.167187123523  0.161412767784
 C105   C  0.167187123523  0.161412767784  -0.310798481335
 C106   C  -0.189201518665  -0.027788750881  0.477985604858
 C107   C  -0.027788750881  0.477985604858  -0.189201518665
 C108   C  -0.494225644261  -0.472211249119  0.338587232216
 C109   C  0.494225644261  -0.477985604858  -0.167187123523
 C110   C  0.189201518665  -0.338587232216  -0.332812876478
 C111   C  0.310798481335  -0.022014395142  0.472211249119
 C112   C  0.005774355739  -0.161412767784  0.027788750881
 C113   C  -0.477985604858  -0.167187123523  0.494225644261
 C114   C  -0.167187123523  0.494225644261  -0.477985604858
 C115   C  -0.161412767784  0.027788750881  0.005774355739
 C116   C  -0.332812876478  0.189201518665  -0.338587232216
 C117   C  -0.338587232216  -0.332812876478  0.189201518665
 C118   C  0.472211249119  0.310798481335  -0.022014395142
 C119   C  -0.022014395142  0.472211249119  0.310798481335
 C120   C  0.027788750881  0.005774355739  -0.161412767784
 C121   C  0.022216607793  -0.006995766712  0.370888025305
 C122   C  0.122116207983  -0.348671417513  0.129111974695
 C123   C  0.477783392207  -0.151328582488  -0.029212374505
 C124   C  0.377883792017  -0.493004233288  -0.470787625496
 C125   C  0.370888025305  0.022216607793  -0.006995766712
 C126   C  -0.006995766712  0.370888025305  0.022216607793
 C127   C  -0.470787625496  0.377883792017  -0.493004233288
 C128   C  -0.348671417513  0.129111974695  0.122116207983
 C129   C  0.129111974695  0.122116207983  -0.348671417513
 C130   C  -0.151328582488  -0.029212374505  0.477783392207
 C131   C  -0.029212374505  0.477783392207  -0.151328582488
 C132   C  -0.493004233288  -0.470787625496  0.377883792017
 C133   C  0.493004233288  -0.477783392207  -0.129111974695
 C134   C  0.151328582488  -0.377883792017  -0.370888025305
 C135   C  0.348671417513  -0.022216607793  0.470787625496
 C136   C  0.006995766712  -0.122116207983  0.029212374505
 C137   C  -0.477783392207  -0.129111974695  0.493004233288
 C138   C  -0.129111974695  0.493004233288  -0.477783392207
 C139   C  -0.122116207983  0.029212374505  0.006995766712
 C140   C  -0.370888025305  0.151328582488  -0.377883792017
 C141   C  -0.377883792017  -0.370888025305  0.151328582488
 C142   C  0.470787625496  0.348671417513  -0.022216607793
 C143   C  -0.022216607793  0.470787625496  0.348671417513
 C144   C  0.029212374505  0.006995766712  -0.122116207983
 C145   C  -0.019139843829  -0.041166465091  0.295318710370
 C146   C  0.163514824539  -0.314458554198  0.204681289630
 C147   C  -0.480860156171  -0.185541445802  -0.022026621263
 C148   C  0.336485175461  -0.458833534909  -0.477973378738
 C149   C  0.295318710370  -0.019139843829  -0.041166465091
 C150   C  -0.041166465091  0.295318710370  -0.019139843829
 C151   C  -0.477973378738  0.336485175461  -0.458833534909
 C152   C  -0.314458554198  0.204681289630  0.163514824539
 C153   C  0.204681289630  0.163514824539  -0.314458554198
 C154   C  -0.185541445802  -0.022026621263  -0.480860156171
 C155   C  -0.022026621263  -0.480860156171  -0.185541445802
 C156   C  -0.458833534909  -0.477973378738  0.336485175461
 C157   C  0.458833534909  0.480860156171  -0.204681289630
 C158   C  0.185541445802  -0.336485175461  -0.295318710370
 C159   C  0.314458554198  0.019139843829  0.477973378738
 C160   C  0.041166465091  -0.163514824539  0.022026621263
 C161   C  0.480860156171  -0.204681289630  0.458833534909
 C162   C  -0.204681289630  0.458833534909  0.480860156171
 C163   C  -0.163514824539  0.022026621263  0.041166465091
 C164   C  -0.295318710370  0.185541445802  -0.336485175461
 C165   C  -0.336485175461  -0.295318710370  0.185541445802
 C166   C  0.477973378738  0.314458554198  0.019139843829
 C167   C  0.019139843829  0.477973378738  0.314458554198
 C168   C  0.022026621263  0.041166465091  -0.163514824539
Mn169  Mn  -0.026870054061  0.004028373462  0.340483820060
Mn170  Mn  0.163544553402  -0.367353874120  0.159516179940
Mn171  Mn  -0.473129945939  -0.132646125880  0.030898427522
Mn172  Mn  0.336455446598  0.495971626538  0.469101572478
Mn173  Mn  0.340483820060  -0.026870054061  0.004028373462
Mn174  Mn  0.004028373462  0.340483820060  -0.026870054061
Mn175  Mn  0.469101572478  0.336455446598  0.495971626538
Mn176  Mn  -0.367353874120  0.159516179940  0.163544553402
Mn177  Mn  0.159516179940  0.163544553402  -0.367353874120
Mn178  Mn  -0.132646125880  0.030898427522  -0.473129945939
Mn179  Mn  0.030898427522  -0.473129945939  -0.132646125880
Mn180  Mn  0.495971626538  0.469101572478  0.336455446598
Mn181  Mn  -0.495971626538  0.473129945939  -0.159516179940
Mn182  Mn  0.132646125880  -0.336455446598  -0.340483820060
Mn183  Mn  0.367353874120  0.026870054061  -0.469101572478
Mn184  Mn  -0.004028373462  -0.163544553402  -0.030898427522
Mn185  Mn  0.473129945939  -0.159516179940  -0.495971626538
Mn186  Mn  -0.159516179940  -0.495971626538  0.473129945939
Mn187  Mn  -0.163544553402  -0.030898427522  -0.004028373462
Mn188  Mn  -0.340483820060  0.132646125880  -0.336455446598
Mn189  Mn  -0.336455446598  -0.340483820060  0.132646125880
Mn190  Mn  -0.469101572478  0.367353874120  0.026870054061
Mn191  Mn  0.026870054061  -0.469101572478  0.367353874120
Mn192  Mn  -0.030898427522  -0.004028373462  -0.163544553402
 H193   H  0.018212928444  0.086641516112  0.417570947403
 H194   H  0.169070568708  -0.399358018960  0.082429052597
 H195   H  0.481787071556  -0.100641981040  0.068428587668
 H196   H  0.330929431292  0.413358483888  0.431571412332
 H197   H  0.417570947403  0.018212928444  0.086641516112
 H198   H  0.086641516112  0.417570947403  0.018212928444
 H199   H  0.431571412332  0.330929431292  0.413358483888
 H200   H  -0.399358018960  0.082429052597  0.169070568708
 H201   H  0.082429052597  0.169070568708  -0.399358018960
 H202   H  -0.100641981040  0.068428587668  0.481787071556
 H203   H  0.068428587668  0.481787071556  -0.100641981040
 H204   H  0.413358483888  0.431571412332  0.330929431292
 H205   H  -0.413358483888  -0.481787071556  -0.082429052597
 H206   H  0.100641981040  -0.330929431292  -0.417570947403
 H207   H  0.399358018960  -0.018212928444  -0.431571412332
 H208   H  -0.086641516112  -0.169070568708  -0.068428587668
 H209   H  -0.481787071556  -0.082429052597  -0.413358483888
 H210   H  -0.082429052597  -0.413358483888  -0.481787071556
 H211   H  -0.169070568708  -0.068428587668  -0.086641516112
 H212   H  -0.417570947403  0.100641981040  -0.330929431292
 H213   H  -0.330929431292  -0.417570947403  0.100641981040
 H214   H  -0.431571412332  0.399358018960  -0.018212928444
 H215   H  -0.018212928444  -0.431571412332  0.399358018960
 H216   H  -0.068428587668  -0.086641516112  -0.169070568708
 C217   C  -0.044170598033  -0.063748499450  0.310057078697
 C218   C  0.126194421852  -0.354227676730  0.189942921303
 C219   C  -0.455829401967  -0.145772323270  -0.019577901417
 C220   C  0.373805578148  -0.436251500550  -0.480422098583
 C221   C  0.310057078697  -0.044170598033  -0.063748499450
 C222   C  -0.063748499450  0.310057078697  -0.044170598033
 C223   C  -0.480422098583  0.373805578148  -0.436251500550
 C224   C  -0.354227676730  0.189942921303  0.126194421852
 C225   C  0.189942921303  0.126194421852  -0.354227676730
 C226   C  -0.145772323270  -0.019577901417  -0.455829401967
 C227   C  -0.019577901417  -0.455829401967  -0.145772323270
 C228   C  -0.436251500550  -0.480422098583  0.373805578148
 C229   C  0.436251500550  0.455829401967  -0.189942921303
 C230   C  0.145772323270  -0.373805578148  -0.310057078697
 C231   C  0.354227676730  0.044170598033  0.480422098583
 C232   C  0.063748499450  -0.126194421852  0.019577901417
 C233   C  0.455829401967  -0.189942921303  0.436251500550
 C234   C  -0.189942921303  0.436251500550  0.455829401967
 C235   C  -0.126194421852  0.019577901417  0.063748499450
 C236   C  -0.310057078697  0.145772323270  -0.373805578148
 C237   C  -0.373805578148  -0.310057078697  0.145772323270
 C238   C  0.480422098583  0.354227676730  0.044170598033
 C239   C  0.044170598033  0.480422098583  0.354227676730
 C240   C  0.019577901417  0.063748499450  -0.126194421852
 H241   H  0.005575381236  0.084772106861  0.340856423031
 H242   H  0.243915683831  -0.335281041795  0.159143576969
 H243   H  0.494424618764  -0.164718958205  0.079196725626
 H244   H  0.256084316169  0.415227893139  0.420803274374
 H245   H  0.340856423031  0.005575381236  0.084772106861
 H246   H  0.084772106861  0.340856423031  0.005575381236
 H247   H  0.420803274374  0.256084316169  0.415227893139
 H248   H  -0.335281041795  0.159143576969  0.243915683831
 H249   H  0.159143576969  0.243915683831  -0.335281041795
 H250   H  -0.164718958205  0.079196725626  0.494424618764
 H251   H  0.079196725626  0.494424618764  -0.164718958205
 H252   H  0.415227893139  0.420803274374  0.256084316169
 H253   H  -0.415227893139  -0.494424618764  -0.159143576969
 H254   H  0.164718958205  -0.256084316169  -0.340856423031
 H255   H  0.335281041795  -0.005575381236  -0.420803274374
 H256   H  -0.084772106861  -0.243915683831  -0.079196725626
 H257   H  -0.494424618764  -0.159143576969  -0.415227893139
 H258   H  -0.159143576969  -0.415227893139  -0.494424618764
 H259   H  -0.243915683831  -0.079196725626  -0.084772106861
 H260   H  -0.340856423031  0.164718958205  -0.256084316169
 H261   H  -0.256084316169  -0.340856423031  0.164718958205
 H262   H  -0.420803274374  0.335281041795  -0.005575381236
 H263   H  -0.005575381236  -0.420803274374  0.335281041795
 H264   H  -0.079196725626  -0.084772106861  -0.243915683831
 C265   C  -0.062189995968  0.029826492616  0.311839409575
 C266   C  0.217987083041  -0.374029405543  0.188160590425
 C267   C  -0.437810004032  -0.125970594457  0.092016488584
 C268   C  0.282012916959  0.470173507384  0.407983511416
 C269   C  0.311839409575  -0.062189995968  0.029826492616
 C270   C  0.029826492616  0.311839409575  -0.062189995968
 C271   C  0.407983511416  0.282012916959  0.470173507384
 C272   C  -0.374029405543  0.188160590425  0.217987083041
 C273   C  0.188160590425  0.217987083041  -0.374029405543
 C274   C  -0.125970594457  0.092016488584  -0.437810004032
 C275   C  0.092016488584  -0.437810004032  -0.125970594457
 C276   C  0.470173507384  0.407983511416  0.282012916959
 C277   C  -0.470173507384  0.437810004032  -0.188160590425
 C278   C  0.125970594457  -0.282012916959  -0.311839409575
 C279   C  0.374029405543  0.062189995968  -0.407983511416
 C280   C  -0.029826492616  -0.217987083041  -0.092016488584
 C281   C  0.437810004032  -0.188160590425  -0.470173507384
 C282   C  -0.188160590425  -0.470173507384  0.437810004032
 C283   C  -0.217987083041  -0.092016488584  -0.029826492616
 C284   C  -0.311839409575  0.125970594457  -0.282012916959
 C285   C  -0.282012916959  -0.311839409575  0.125970594457
 C286   C  -0.407983511416  0.374029405543  0.062189995968
 C287   C  0.062189995968  -0.407983511416  0.374029405543
 C288   C  -0.092016488584  -0.029826492616  -0.217987083041
 C289   C  -0.011766465051  0.064995141877  0.385940744739
 C290   C  0.179054397138  -0.397707209790  0.114059255261
 C291   C  -0.488233534949  -0.102292790210  0.076761606929
 C292   C  0.320945602862  0.435004858123  0.423238393072
 C293   C  0.385940744739  -0.011766465051  0.064995141877
 C294   C  0.064995141877  0.385940744739  -0.011766465051
 C295   C  0.423238393072  0.320945602862  0.435004858123
 C296   C  -0.397707209790  0.114059255261  0.179054397138
 C297   C  0.114059255261  0.179054397138  -0.397707209790
 C298   C  -0.102292790210  0.076761606929  -0.488233534949
 C299   C  0.076761606929  -0.488233534949  -0.102292790210
 C300   C  0.435004858123  0.423238393072  0.320945602862
 C301   C  -0.435004858123  0.488233534949  -0.114059255261
 C302   C  0.102292790210  -0.320945602862  -0.385940744739
 C303   C  0.397707209790  0.011766465051  -0.423238393072
 C304   C  -0.064995141877  -0.179054397138  -0.076761606929
 C305   C  0.488233534949  -0.114059255261  -0.435004858123
 C306   C  -0.114059255261  -0.435004858123  0.488233534949
 C307   C  -0.179054397138  -0.076761606929  -0.064995141877
 C308   C  -0.385940744739  0.102292790210  -0.320945602862
 C309   C  -0.320945602862  -0.385940744739  0.102292790210
 C310   C  -0.423238393072  0.397707209790  0.011766465051
 C311   C  0.011766465051  -0.423238393072  0.397707209790
 C312   C  -0.076761606929  -0.064995141877  -0.179054397138
 C313   C  -0.018582174013  0.063718242513  0.345456605103
 C314   C  0.218261637410  -0.364038779117  0.154543394897
 C315   C  -0.481417825987  -0.135961220883  0.082300416526
 C316   C  0.281738362590  0.436281757487  0.417699583474
 C317   C  0.345456605103  -0.018582174013  0.063718242513
 C318   C  0.063718242513  0.345456605103  -0.018582174013
 C319   C  0.417699583474  0.281738362590  0.436281757487
 C320   C  -0.364038779117  0.154543394897  0.218261637410
 C321   C  0.154543394897  0.218261637410  -0.364038779117
 C322   C  -0.135961220883  0.082300416526  -0.481417825987
 C323   C  0.082300416526  -0.481417825987  -0.135961220883
 C324   C  0.436281757487  0.417699583474  0.281738362590
 C325   C  -0.436281757487  0.481417825987  -0.154543394897
 C326   C  0.135961220883  -0.281738362590  -0.345456605103
 C327   C  0.364038779117  0.018582174013  -0.417699583474
 C328   C  -0.063718242513  -0.218261637410  -0.082300416526
 C329   C  0.481417825987  -0.154543394897  -0.436281757487
 C330   C  -0.154543394897  -0.436281757487  0.481417825987
 C331   C  -0.218261637410  -0.082300416526  -0.063718242513
 C332   C  -0.345456605103  0.135961220883  -0.281738362590
 C333   C  -0.281738362590  -0.345456605103  0.135961220883
 C334   C  -0.417699583474  0.364038779117  0.018582174013
 C335   C  0.018582174013  -0.417699583474  0.364038779117
 C336   C  -0.082300416526  -0.063718242513  -0.218261637410
 H337   H  -0.077426519938  0.021158850572  0.277600043170
 H338   H  0.243558807402  -0.355026563109  0.222399956830
 H339   H  -0.422573480061  -0.144973436891  0.098585370511
 H340   H  0.256441192598  0.478841149428  0.401414629489
 H341   H  0.277600043170  -0.077426519938  0.021158850572
 H342   H  0.021158850572  0.277600043170  -0.077426519938
 H343   H  0.401414629489  0.256441192598  0.478841149428
 H344   H  -0.355026563109  0.222399956830  0.243558807402
 H345   H  0.222399956830  0.243558807402  -0.355026563109
 H346   H  -0.144973436891  0.098585370511  -0.422573480061
 H347   H  0.098585370511  -0.422573480061  -0.144973436891
 H348   H  0.478841149428  0.401414629489  0.256441192598
 H349   H  -0.478841149428  0.422573480061  -0.222399956830
 H350   H  0.144973436891  -0.256441192598  -0.277600043170
 H351   H  0.355026563109  0.077426519938  -0.401414629489
 H352   H  -0.021158850572  -0.243558807402  -0.098585370511
 H353   H  0.422573480061  -0.222399956830  -0.478841149428
 H354   H  -0.222399956830  -0.478841149428  0.422573480061
 H355   H  -0.243558807402  -0.098585370511  -0.021158850572
 H356   H  -0.277600043170  0.144973436891  -0.256441192598
 H357   H  -0.256441192598  -0.277600043170  0.144973436891
 H358   H  -0.401414629489  0.355026563109  0.077426519938
 H359   H  0.077426519938  -0.401414629489  0.355026563109
 H360   H  -0.098585370511  -0.021158850572  -0.243558807402
 H361   H  0.048671190826  0.015336352779  0.404667387397
 H362   H  0.110668965383  -0.355996196571  0.095332612603
 H363   H  0.451328809174  -0.144003803429  -0.033334838046
 H364   H  0.389331034617  0.484663647220  -0.466665161954
 H365   H  0.404667387397  0.048671190826  0.015336352779
 H366   H  0.015336352779  0.404667387397  0.048671190826
 H367   H  -0.466665161954  0.389331034617  0.484663647220
 H368   H  -0.355996196571  0.095332612603  0.110668965383
 H369   H  0.095332612603  0.110668965383  -0.355996196571
 H370   H  -0.144003803429  -0.033334838046  0.451328809174
 H371   H  -0.033334838046  0.451328809174  -0.144003803429
 H372   H  0.484663647220  -0.466665161954  0.389331034617
 H373   H  -0.484663647220  -0.451328809174  -0.095332612603
 H374   H  0.144003803429  -0.389331034617  -0.404667387397
 H375   H  0.355996196571  -0.048671190826  0.466665161954
 H376   H  -0.015336352779  -0.110668965383  0.033334838046
 H377   H  -0.451328809174  -0.095332612603  -0.484663647220
 H378   H  -0.095332612603  -0.484663647220  -0.451328809174
 H379   H  -0.110668965383  0.033334838046  -0.015336352779
 H380   H  -0.404667387397  0.144003803429  -0.389331034617
 H381   H  -0.389331034617  -0.404667387397  0.144003803429
 H382   H  0.466665161954  0.355996196571  -0.048671190826
 H383   H  -0.048671190826  0.466665161954  0.355996196571
 H384   H  0.033334838046  -0.015336352779  -0.110668965383
 O385   O  0.014243717889  0.060453486460  0.470157972511
 O386   O  0.090295513949  -0.455914254622  0.029842027489
 O387   O  0.485756282111  -0.044085745378  0.046209768572
 O388   O  0.409704486051  0.439546513540  0.453790231428
 O389   O  0.470157972511  0.014243717889  0.060453486460
 O390   O  0.060453486460  0.470157972511  0.014243717889
 O391   O  0.453790231428  0.409704486051  0.439546513540
 O392   O  -0.455914254622  0.029842027489  0.090295513949
 O393   O  0.029842027489  0.090295513949  -0.455914254622
 O394   O  -0.044085745378  0.046209768572  0.485756282111
 O395   O  0.046209768572  0.485756282111  -0.044085745378
 O396   O  0.439546513540  0.453790231428  0.409704486051
 O397   O  -0.439546513540  -0.485756282111  -0.029842027489
 O398   O  0.044085745378  -0.409704486051  -0.470157972511
 O399   O  0.455914254622  -0.014243717889  -0.453790231428
 O400   O  -0.060453486460  -0.090295513949  -0.046209768572
 O401   O  -0.485756282111  -0.029842027489  -0.439546513540
 O402   O  -0.029842027489  -0.439546513540  -0.485756282111
 O403   O  -0.090295513949  -0.046209768572  -0.060453486460
 O404   O  -0.470157972511  0.044085745378  -0.409704486051
 O405   O  -0.409704486051  -0.470157972511  0.044085745378
 O406   O  -0.453790231428  0.455914254622  -0.014243717889
 O407   O  -0.014243717889  -0.453790231428  0.455914254622
 O408   O  -0.046209768572  -0.060453486460  -0.090295513949
 H409   H  -0.159385253839  -0.090632408700  0.167958227046
 H410   H  0.241409364254  -0.327343480886  0.332041772954
 H411   H  -0.340614746161  -0.172656519115  0.068752845140
 H412   H  0.258590635746  -0.409367591300  0.431247154861
 H413   H  0.167958227046  -0.159385253839  -0.090632408700
 H414   H  -0.090632408700  0.167958227046  -0.159385253839
 H415   H  0.431247154861  0.258590635746  -0.409367591300
 H416   H  -0.327343480886  0.332041772954  0.241409364254
 H417   H  0.332041772954  0.241409364254  -0.327343480886
 H418   H  -0.172656519115  0.068752845140  -0.340614746161
 H419   H  0.068752845140  -0.340614746161  -0.172656519115
 H420   H  -0.409367591300  0.431247154861  0.258590635746
 H421   H  0.409367591300  0.340614746161  -0.332041772954
 H422   H  0.172656519115  -0.258590635746  -0.167958227046
 H423   H  0.327343480886  0.159385253839  -0.431247154861
 H424   H  0.090632408700  -0.241409364254  -0.068752845140
 H425   H  0.340614746161  -0.332041772954  0.409367591300
 H426   H  -0.332041772954  0.409367591300  0.340614746161
 H427   H  -0.241409364254  -0.068752845140  0.090632408700
 H428   H  -0.167958227046  0.172656519115  -0.258590635746
 H429   H  -0.258590635746  -0.167958227046  0.172656519115
 H430   H  -0.431247154861  0.327343480886  0.159385253839
 H431   H  0.159385253839  -0.431247154861  0.327343480886
 H432   H  -0.068752845140  0.090632408700  -0.241409364254
 H433   H  -0.167530931040  -0.065675601351  0.328785424488
 H434   H  0.105538974162  -0.496316355527  0.171214575512
 H435   H  -0.332469068960  -0.003683644472  0.101855329689
 H436   H  0.394461025838  -0.434324398649  0.398144670311
 H437   H  0.328785424488  -0.167530931040  -0.065675601351
 H438   H  -0.065675601351  0.328785424488  -0.167530931040
 H439   H  0.398144670311  0.394461025838  -0.434324398649
 H440   H  -0.496316355527  0.171214575512  0.105538974162
 H441   H  0.171214575512  0.105538974162  -0.496316355527
 H442   H  -0.003683644472  0.101855329689  -0.332469068960
 H443   H  0.101855329689  -0.332469068960  -0.003683644472
 H444   H  -0.434324398649  0.398144670311  0.394461025838
 H445   H  0.434324398649  0.332469068960  -0.171214575512
 H446   H  0.003683644472  -0.394461025838  -0.328785424488
 H447   H  0.496316355527  0.167530931040  -0.398144670311
 H448   H  0.065675601351  -0.105538974162  -0.101855329689
 H449   H  0.332469068960  -0.171214575512  0.434324398649
 H450   H  -0.171214575512  0.434324398649  0.332469068960
 H451   H  -0.105538974162  -0.101855329689  0.065675601351
 H452   H  -0.328785424488  0.003683644472  -0.394461025838
 H453   H  -0.394461025838  -0.328785424488  0.003683644472
 H454   H  -0.398144670311  0.496316355527  0.167530931040
 H455   H  0.167530931040  -0.398144670311  0.496316355527
 H456   H  -0.101855329689  0.065675601351  -0.105538974162
 C457   C  -0.018945797328  -0.042775692209  0.356472923206
 C458   C  0.100751384585  -0.375418720534  0.143527076794
 C459   C  -0.481054202672  -0.124581279466  -0.023829894881
 C460   C  0.399248615415  -0.457224307791  -0.476170105119
 C461   C  0.356472923206  -0.018945797328  -0.042775692209
 C462   C  -0.042775692209  0.356472923206  -0.018945797328
 C463   C  -0.476170105119  0.399248615415  -0.457224307791
 C464   C  -0.375418720534  0.143527076794  0.100751384585
 C465   C  0.143527076794  0.100751384585  -0.375418720534
 C466   C  -0.124581279466  -0.023829894881  -0.481054202672
 C467   C  -0.023829894881  -0.481054202672  -0.124581279466
 C468   C  -0.457224307791  -0.476170105119  0.399248615415
 C469   C  0.457224307791  0.481054202672  -0.143527076794
 C470   C  0.124581279466  -0.399248615415  -0.356472923206
 C471   C  0.375418720534  0.018945797328  0.476170105119
 C472   C  0.042775692209  -0.100751384585  0.023829894881
 C473   C  0.481054202672  -0.143527076794  0.457224307791
 C474   C  -0.143527076794  0.457224307791  0.481054202672
 C475   C  -0.100751384585  0.023829894881  0.042775692209
 C476   C  -0.356472923206  0.124581279466  -0.399248615415
 C477   C  -0.399248615415  -0.356472923206  0.124581279466
 C478   C  0.476170105119  0.375418720534  0.018945797328
 C479   C  0.018945797328  0.476170105119  0.375418720534
 C480   C  0.023829894881  0.042775692209  -0.100751384585
 H481   H  -0.265634657375  -0.099987162495  0.192758010280
 H482   H  0.207254827225  -0.458392667655  0.307241989720
 H483   H  -0.234365342625  -0.041607332345  0.165647494880
 H484   H  0.292745172775  -0.400012837505  0.334352505120
 H485   H  0.192758010280  -0.265634657375  -0.099987162495
 H486   H  -0.099987162495  0.192758010280  -0.265634657375
 H487   H  0.334352505120  0.292745172775  -0.400012837505
 H488   H  -0.458392667655  0.307241989720  0.207254827225
 H489   H  0.307241989720  0.207254827225  -0.458392667655
 H490   H  -0.041607332345  0.165647494880  -0.234365342625
 H491   H  0.165647494880  -0.234365342625  -0.041607332345
 H492   H  -0.400012837505  0.334352505120  0.292745172775
 H493   H  0.400012837505  0.234365342625  -0.307241989720
 H494   H  0.041607332345  -0.292745172775  -0.192758010280
 H495   H  0.458392667655  0.265634657375  -0.334352505120
 H496   H  0.099987162495  -0.207254827225  -0.165647494880
 H497   H  0.234365342625  -0.307241989720  0.400012837505
 H498   H  -0.307241989720  0.400012837505  0.234365342625
 H499   H  -0.207254827225  -0.165647494880  0.099987162495
 H500   H  -0.192758010280  0.041607332345  -0.292745172775
 H501   H  -0.292745172775  -0.192758010280  0.041607332345
 H502   H  -0.334352505120  0.458392667655  0.265634657375
 H503   H  0.265634657375  -0.334352505120  0.458392667655
 H504   H  -0.165647494880  0.099987162495  -0.207254827225
 H505   H  -0.213569301625  -0.058439490340  0.272707839189
 H506   H  0.168852670471  -0.486277140815  0.227292160811
 H507   H  -0.286430698375  -0.013722859185  0.155129811285
 H508   H  0.331147329529  -0.441560509660  0.344870188715
 H509   H  0.272707839189  -0.213569301625  -0.058439490340
 H510   H  -0.058439490340  0.272707839189  -0.213569301625
 H511   H  0.344870188715  0.331147329529  -0.441560509660
 H512   H  -0.486277140815  0.227292160811  0.168852670471
 H513   H  0.227292160811  0.168852670471  -0.486277140815
 H514   H  -0.013722859185  0.155129811285  -0.286430698375
 H515   H  0.155129811285  -0.286430698375  -0.013722859185
 H516   H  -0.441560509660  0.344870188715  0.331147329529
 H517   H  0.441560509660  0.286430698375  -0.227292160811
 H518   H  0.013722859185  -0.331147329529  -0.272707839189
 H519   H  0.486277140815  0.213569301625  -0.344870188715
 H520   H  0.058439490340  -0.168852670471  -0.155129811285
 H521   H  0.286430698375  -0.227292160811  0.441560509660
 H522   H  -0.227292160811  0.441560509660  0.286430698375
 H523   H  -0.168852670471  -0.155129811285  0.058439490340
 H524   H  -0.272707839189  0.013722859185  -0.331147329529
 H525   H  -0.331147329529  -0.272707839189  0.013722859185
 H526   H  -0.344870188715  0.486277140815  0.213569301625
 H527   H  0.213569301625  -0.344870188715  0.486277140815
 H528   H  -0.155129811285  0.058439490340  -0.168852670471
 H529   H  -0.115114871438  -0.024643821882  0.408781574581
 H530   H  0.066574603537  0.476103553981  0.091218425419
 H531   H  -0.384885128562  0.023896446019  0.090471049556
 H532   H  0.433425396463  -0.475356178118  0.409528950444
 H533   H  0.408781574581  -0.115114871438  -0.024643821882
 H534   H  -0.024643821882  0.408781574581  -0.115114871438
 H535   H  0.409528950444  0.433425396463  -0.475356178118
 H536   H  0.476103553981  0.091218425419  0.066574603537
 H537   H  0.091218425419  0.066574603537  0.476103553981
 H538   H  0.023896446019  0.090471049556  -0.384885128562
 H539   H  0.090471049556  -0.384885128562  0.023896446019
 H540   H  -0.475356178118  0.409528950444  0.433425396463
 H541   H  0.475356178118  0.384885128562  -0.091218425419
 H542   H  -0.023896446019  -0.433425396463  -0.408781574581
 H543   H  -0.476103553981  0.115114871438  -0.409528950444
 H544   H  0.024643821882  -0.066574603537  -0.090471049556
 H545   H  0.384885128562  -0.091218425419  0.475356178118
 H546   H  -0.091218425419  0.475356178118  0.384885128562
 H547   H  -0.066574603537  -0.090471049556  0.024643821882
 H548   H  -0.408781574581  -0.023896446019  -0.433425396463
 H549   H  -0.433425396463  -0.408781574581  -0.023896446019
 H550   H  -0.409528950444  -0.476103553981  0.115114871438
 H551   H  0.115114871438  -0.409528950444  -0.476103553981
 H552   H  -0.090471049556  0.024643821882  -0.066574603537
 H553   H  -0.107751374549  -0.051207306335  0.247963773378
 H554   H  0.200828920287  -0.355715147927  0.252036226622
 H555   H  -0.392248625451  -0.144284852073  0.056544068214
 H556   H  0.299171079713  -0.448792693665  0.443455931786
 H557   H  0.247963773378  -0.107751374549  -0.051207306335
 H558   H  -0.051207306335  0.247963773378  -0.107751374549
 H559   H  0.443455931786  0.299171079713  -0.448792693665
 H560   H  -0.355715147927  0.252036226622  0.200828920287
 H561   H  0.252036226622  0.200828920287  -0.355715147927
 H562   H  -0.144284852073  0.056544068214  -0.392248625451
 H563   H  0.056544068214  -0.392248625451  -0.144284852073
 H564   H  -0.448792693665  0.443455931786  0.299171079713
 H565   H  0.448792693665  0.392248625451  -0.252036226622
 H566   H  0.144284852073  -0.299171079713  -0.247963773378
 H567   H  0.355715147927  0.107751374549  -0.443455931786
 H568   H  0.051207306335  -0.200828920287  -0.056544068214
 H569   H  0.392248625451  -0.252036226622  0.448792693665
 H570   H  -0.252036226622  0.448792693665  0.392248625451
 H571   H  -0.200828920287  -0.056544068214  0.051207306335
 H572   H  -0.247963773378  0.144284852073  -0.299171079713
 H573   H  -0.299171079713  -0.247963773378  0.144284852073
 H574   H  -0.443455931786  0.355715147927  0.107751374549
 H575   H  0.107751374549  -0.443455931786  0.355715147927
 H576   H  -0.056544068214  0.051207306335  -0.200828920287
 C577   C  -0.230991763371  -0.089965972401  0.204809851340
 C578   C  0.205224176259  -0.435801614711  0.295190148660
 C579   C  -0.269008236629  -0.064198385289  0.141025790970
 C580   C  0.294775823741  -0.410034027599  0.358974209030
 C581   C  0.204809851340  -0.230991763371  -0.089965972401
 C582   C  -0.089965972401  0.204809851340  -0.230991763371
 C583   C  0.358974209030  0.294775823741  -0.410034027599
 C584   C  -0.435801614711  0.295190148660  0.205224176259
 C585   C  0.295190148660  0.205224176259  -0.435801614711
 C586   C  -0.064198385289  0.141025790970  -0.269008236629
 C587   C  0.141025790970  -0.269008236629  -0.064198385289
 C588   C  -0.410034027599  0.358974209030  0.294775823741
 C589   C  0.410034027599  0.269008236629  -0.295190148660
 C590   C  0.064198385289  -0.294775823741  -0.204809851340
 C591   C  0.435801614711  0.230991763371  -0.358974209030
 C592   C  0.089965972401  -0.205224176259  -0.141025790970
 C593   C  0.269008236629  -0.295190148660  0.410034027599
 C594   C  -0.295190148660  0.410034027599  0.269008236629
 C595   C  -0.205224176259  -0.141025790970  0.089965972401
 C596   C  -0.204809851340  0.064198385289  -0.294775823741
 C597   C  -0.294775823741  -0.204809851340  0.064198385289
 C598   C  -0.358974209030  0.435801614711  0.230991763371
 C599   C  0.230991763371  -0.358974209030  0.435801614711
 C600   C  -0.141025790970  0.089965972401  -0.205224176259
 C601   C  -0.156811832384  -0.051670768607  0.266015315470
 C602   C  0.182313915923  -0.422827147854  0.233984684530
 C603   C  -0.343188167616  -0.077172852146  0.105141063778
 C604   C  0.317686084077  -0.448329231393  0.394858936222
 C605   C  0.266015315470  -0.156811832384  -0.051670768607
 C606   C  -0.051670768607  0.266015315470  -0.156811832384
 C607   C  0.394858936222  0.317686084077  -0.448329231393
 C608   C  -0.422827147854  0.233984684530  0.182313915923
 C609   C  0.233984684530  0.182313915923  -0.422827147854
 C610   C  -0.077172852146  0.105141063778  -0.343188167616
 C611   C  0.105141063778  -0.343188167616  -0.077172852146
 C612   C  -0.448329231393  0.394858936222  0.317686084077
 C613   C  0.448329231393  0.343188167616  -0.233984684530
 C614   C  0.077172852146  -0.317686084077  -0.266015315470
 C615   C  0.422827147854  0.156811832384  -0.394858936222
 C616   C  0.051670768607  -0.182313915923  -0.105141063778
 C617   C  0.343188167616  -0.233984684530  0.448329231393
 C618   C  -0.233984684530  0.448329231393  0.343188167616
 C619   C  -0.182313915923  -0.105141063778  0.051670768607
 C620   C  -0.266015315470  0.077172852146  -0.317686084077
 C621   C  -0.317686084077  -0.266015315470  0.077172852146
 C622   C  -0.394858936222  0.422827147854  0.156811832384
 C623   C  0.156811832384  -0.394858936222  0.422827147854
 C624   C  -0.105141063778  0.051670768607  -0.182313915923
 C625   C  -0.216524407390  -0.099172199835  0.174347626181
 C626   C  0.226480173984  -0.390872033571  0.325652373819
 C627   C  -0.283475592610  -0.109127966429  0.117352207555
 C628   C  0.273519826016  -0.400827800165  0.382647792445
 C629   C  0.174347626181  -0.216524407390  -0.099172199835
 C630   C  -0.099172199835  0.174347626181  -0.216524407390
 C631   C  0.382647792445  0.273519826016  -0.400827800165
 C632   C  -0.390872033571  0.325652373819  0.226480173984
 C633   C  0.325652373819  0.226480173984  -0.390872033571
 C634   C  -0.109127966429  0.117352207555  -0.283475592610
 C635   C  0.117352207555  -0.283475592610  -0.109127966429
 C636   C  -0.400827800165  0.382647792445  0.273519826016
 C637   C  0.400827800165  0.283475592610  -0.325652373819
 C638   C  0.109127966429  -0.273519826016  -0.174347626181
 C639   C  0.390872033571  0.216524407390  -0.382647792445
 C640   C  0.099172199835  -0.226480173984  -0.117352207555
 C641   C  0.283475592610  -0.325652373819  0.400827800165
 C642   C  -0.325652373819  0.400827800165  0.283475592610
 C643   C  -0.226480173984  -0.117352207555  0.099172199835
 C644   C  -0.174347626181  0.109127966429  -0.273519826016
 C645   C  -0.273519826016  -0.174347626181  0.109127966429
 C646   C  -0.382647792445  0.390872033571  0.216524407390
 C647   C  0.216524407390  -0.382647792445  0.390872033571
 C648   C  -0.117352207555  0.099172199835  -0.226480173984
 C649   C  -0.171766511287  -0.084583265806  0.190699955620
 C650   C  0.224716778574  -0.362466466907  0.309300044380
 C651   C  -0.328233488713  -0.137533533093  0.087183245481
 C652   C  0.275283221426  -0.415416734194  0.412816754519
 C653   C  0.190699955620  -0.171766511287  -0.084583265806
 C654   C  -0.084583265806  0.190699955620  -0.171766511287
 C655   C  0.412816754519  0.275283221426  -0.415416734194
 C656   C  -0.362466466907  0.309300044380  0.224716778574
 C657   C  0.309300044380  0.224716778574  -0.362466466907
 C658   C  -0.137533533093  0.087183245481  -0.328233488713
 C659   C  0.087183245481  -0.328233488713  -0.137533533093
 C660   C  -0.415416734194  0.412816754519  0.275283221426
 C661   C  0.415416734194  0.328233488713  -0.309300044380
 C662   C  0.137533533093  -0.275283221426  -0.190699955620
 C663   C  0.362466466907  0.171766511287  -0.412816754519
 C664   C  0.084583265806  -0.224716778574  -0.087183245481
 C665   C  0.328233488713  -0.309300044380  0.415416734194
 C666   C  -0.309300044380  0.415416734194  0.328233488713
 C667   C  -0.224716778574  -0.087183245481  0.084583265806
 C668   C  -0.190699955620  0.137533533093  -0.275283221426
 C669   C  -0.275283221426  -0.190699955620  0.137533533093
 C670   C  -0.412816754519  0.362466466907  0.171766511287
 C671   C  0.171766511287  -0.412816754519  0.362466466907
 C672   C  -0.087183245481  0.084583265806  -0.224716778574
 C673   C  -0.063467993352  0.019620658685  0.406266434521
 C674   C  0.113354224164  -0.469734427873  0.093733565479
 C675   C  -0.436532006648  -0.030265572128  0.083088652037
 C676   C  0.386645775836  0.480379341315  0.416911347963
 C677   C  0.406266434521  -0.063467993352  0.019620658685
 C678   C  0.019620658685  0.406266434521  -0.063467993352
 C679   C  0.416911347963  0.386645775836  0.480379341315
 C680   C  -0.469734427873  0.093733565479  0.113354224164
 C681   C  0.093733565479  0.113354224164  -0.469734427873
 C682   C  -0.030265572128  0.083088652037  -0.436532006648
 C683   C  0.083088652037  -0.436532006648  -0.030265572128
 C684   C  0.480379341315  0.416911347963  0.386645775836
 C685   C  -0.480379341315  0.436532006648  -0.093733565479
 C686   C  0.030265572128  -0.386645775836  -0.406266434521
 C687   C  0.469734427873  0.063467993352  -0.416911347963
 C688   C  -0.019620658685  -0.113354224164  -0.083088652037
 C689   C  0.436532006648  -0.093733565479  -0.480379341315
 C690   C  -0.093733565479  -0.480379341315  0.436532006648
 C691   C  -0.113354224164  -0.083088652037  -0.019620658685
 C692   C  -0.406266434521  0.030265572128  -0.386645775836
 C693   C  -0.386645775836  -0.406266434521  0.030265572128
 C694   C  -0.416911347963  0.469734427873  0.063467993352
 C695   C  0.063467993352  -0.416911347963  0.469734427873
 C696   C  -0.083088652037  -0.019620658685  -0.113354224164
 C697   C  -0.083561742323  0.010907401390  0.331806052763
 C698   C  0.179101348627  -0.415367795086  0.168193947237
 C699   C  -0.416438257677  -0.084632204914  0.094469143712
 C700   C  0.320898651373  0.489092598610  0.405530856288
 C701   C  0.331806052763  -0.083561742323  0.010907401390
 C702   C  0.010907401390  0.331806052763  -0.083561742323
 C703   C  0.405530856288  0.320898651373  0.489092598610
 C704   C  -0.415367795086  0.168193947237  0.179101348627
 C705   C  0.168193947237  0.179101348627  -0.415367795086
 C706   C  -0.084632204914  0.094469143712  -0.416438257677
 C707   C  0.094469143712  -0.416438257677  -0.084632204914
 C708   C  0.489092598610  0.405530856288  0.320898651373
 C709   C  -0.489092598610  0.416438257677  -0.168193947237
 C710   C  0.084632204914  -0.320898651373  -0.331806052763
 C711   C  0.415367795086  0.083561742323  -0.405530856288
 C712   C  -0.010907401390  -0.179101348627  -0.094469143712
 C713   C  0.416438257677  -0.168193947237  -0.489092598610
 C714   C  -0.168193947237  -0.489092598610  0.416438257677
 C715   C  -0.179101348627  -0.094469143712  -0.010907401390
 C716   C  -0.331806052763  0.084632204914  -0.320898651373
 C717   C  -0.320898651373  -0.331806052763  0.084632204914
 C718   C  -0.405530856288  0.415367795086  0.083561742323
 C719   C  0.083561742323  -0.405530856288  0.415367795086
 C720   C  -0.094469143712  -0.010907401390  -0.179101348627
 C721   C  -0.201794515039  -0.066690076280  0.249700109292
 C722   C  0.183609814428  -0.451494624331  0.250299890708
 C723   C  -0.298205484961  -0.048505375669  0.135104438759
 C724   C  0.316390185572  -0.433309923720  0.364895561241
 C725   C  0.249700109292  -0.201794515039  -0.066690076280
 C726   C  -0.066690076280  0.249700109292  -0.201794515039
 C727   C  0.364895561241  0.316390185572  -0.433309923720
 C728   C  -0.451494624331  0.250299890708  0.183609814428
 C729   C  0.250299890708  0.183609814428  -0.451494624331
 C730   C  -0.048505375669  0.135104438759  -0.298205484961
 C731   C  0.135104438759  -0.298205484961  -0.048505375669
 C732   C  -0.433309923720  0.364895561241  0.316390185572
 C733   C  0.433309923720  0.298205484961  -0.250299890708
 C734   C  0.048505375669  -0.316390185572  -0.249700109292
 C735   C  0.451494624331  0.201794515039  -0.364895561241
 C736   C  0.066690076280  -0.183609814427  -0.135104438759
 C737   C  0.298205484961  -0.250299890708  0.433309923720
 C738   C  -0.250299890708  0.433309923720  0.298205484961
 C739   C  -0.183609814427  -0.135104438759  0.066690076280
 C740   C  -0.249700109292  0.048505375669  -0.316390185572
 C741   C  -0.316390185572  -0.249700109292  0.048505375669
 C742   C  -0.364895561241  0.451494624331  0.201794515039
 C743   C  0.201794515039  -0.364895561241  0.451494624331
 C744   C  -0.135104438759  0.066690076280  -0.183609814427
 C745   C  -0.125576991463  -0.026264151853  0.313573150617
 C746   C  0.160162697530  -0.439150142081  0.186426849383
 C747   C  -0.374423008537  -0.060849857919  0.099312839610
 C748   C  0.339837302470  -0.473735848147  0.400687160390
 C749   C  0.313573150617  -0.125576991463  -0.026264151853
 C750   C  -0.026264151853  0.313573150617  -0.125576991463
 C751   C  0.400687160390  0.339837302470  -0.473735848147
 C752   C  -0.439150142081  0.186426849383  0.160162697530
 C753   C  0.186426849383  0.160162697530  -0.439150142081
 C754   C  -0.060849857919  0.099312839610  -0.374423008537
 C755   C  0.099312839610  -0.374423008537  -0.060849857919
 C756   C  -0.473735848147  0.400687160390  0.339837302470
 C757   C  0.473735848147  0.374423008537  -0.186426849383
 C758   C  0.060849857919  -0.339837302470  -0.313573150617
 C759   C  0.439150142081  0.125576991463  -0.400687160390
 C760   C  0.026264151853  -0.160162697530  -0.099312839610
 C761   C  0.374423008537  -0.186426849383  0.473735848147
 C762   C  -0.186426849383  0.473735848147  0.374423008537
 C763   C  -0.160162697530  -0.099312839610  0.026264151853
 C764   C  -0.313573150617  0.060849857919  -0.339837302470
 C765   C  -0.339837302470  -0.313573150617  0.060849857919
 C766   C  -0.400687160390  0.439150142081  0.125576991463
 C767   C  0.125576991463  -0.400687160390  0.439150142081
 C768   C  -0.099312839610  0.026264151853  -0.160162697530
 C769   C  -0.142482104260  -0.061578747127  0.235662784087
 C770   C  0.202758468787  -0.378144888346  0.264337215913
 C771   C  -0.357517895741  -0.121855111654  0.080903357133
 C772   C  0.297241531213  -0.438421252873  0.419096642867
 C773   C  0.235662784087  -0.142482104260  -0.061578747127
 C774   C  -0.061578747127  0.235662784087  -0.142482104260
 C775   C  0.419096642867  0.297241531213  -0.438421252873
 C776   C  -0.378144888346  0.264337215913  0.202758468787
 C777   C  0.264337215913  0.202758468787  -0.378144888346
 C778   C  -0.121855111654  0.080903357133  -0.357517895741
 C779   C  0.080903357133  -0.357517895741  -0.121855111654
 C780   C  -0.438421252873  0.419096642867  0.297241531213
 C781   C  0.438421252873  0.357517895741  -0.264337215913
 C782   C  0.121855111654  -0.297241531213  -0.235662784087
 C783   C  0.378144888346  0.142482104260  -0.419096642867
 C784   C  0.061578747127  -0.202758468787  -0.080903357133
 C785   C  0.357517895741  -0.264337215913  0.438421252873
 C786   C  -0.264337215913  0.438421252873  0.357517895741
 C787   C  -0.202758468787  -0.080903357133  0.061578747127
 C788   C  -0.235662784087  0.121855111654  -0.297241531213
 C789   C  -0.297241531213  -0.235662784087  0.121855111654
 C790   C  -0.419096642867  0.378144888346  0.142482104260
 C791   C  0.142482104260  -0.419096642867  0.378144888346
 C792   C  -0.080903357133  0.061578747127  -0.202758468787
 C793   C  -0.105564395600  -0.014276358082  0.387710786260
 C794   C  0.098012855658  -0.493275181860  0.112289213740
 C795   C  -0.394435604400  -0.006724818140  0.091288037518
 C796   C  0.401987144342  -0.485723641918  0.408711962482
 C797   C  0.387710786260  -0.105564395600  -0.014276358082
 C798   C  -0.014276358082  0.387710786260  -0.105564395600
 C799   C  0.408711962482  0.401987144342  -0.485723641918
 C800   C  -0.493275181860  0.112289213740  0.098012855658
 C801   C  0.112289213740  0.098012855658  -0.493275181860
 C802   C  -0.006724818140  0.091288037518  -0.394435604400
 C803   C  0.091288037518  -0.394435604400  -0.006724818140
 C804   C  -0.485723641918  0.408711962482  0.401987144342
 C805   C  0.485723641918  0.394435604400  -0.112289213740
 C806   C  0.006724818140  -0.401987144342  -0.387710786260
 C807   C  0.493275181860  0.105564395600  -0.408711962482
 C808   C  0.014276358082  -0.098012855658  -0.091288037518
 C809   C  0.394435604400  -0.112289213740  0.485723641918
 C810   C  -0.112289213740  0.485723641918  0.394435604400
 C811   C  -0.098012855658  -0.091288037518  0.014276358082
 C812   C  -0.387710786260  0.006724818140  -0.401987144342
 C813   C  -0.401987144342  -0.387710786260  0.006724818140
 C814   C  -0.408711962482  0.493275181860  0.105564395600
 C815   C  0.105564395600  -0.408711962482  0.493275181860
 C816   C  -0.091288037518  0.014276358082  -0.098012855658
 C817   C  -0.052315294693  0.033057205012  0.377941797373
 C818   C  0.155115407639  -0.430257092066  0.122058202627
 C819   C  -0.447684705307  -0.069742907934  0.085372499705
 C820   C  0.344884592361  0.466942794988  0.414627500295
 C821   C  0.377941797373  -0.052315294693  0.033057205012
 C822   C  0.033057205012  0.377941797373  -0.052315294693
 C823   C  0.414627500295  0.344884592361  0.466942794988
 C824   C  -0.430257092066  0.122058202627  0.155115407639
 C825   C  0.122058202627  0.155115407639  -0.430257092066
 C826   C  -0.069742907934  0.085372499705  -0.447684705307
 C827   C  0.085372499705  -0.447684705307  -0.069742907934
 C828   C  0.466942794988  0.414627500295  0.344884592361
 C829   C  -0.466942794988  0.447684705307  -0.122058202627
 C830   C  0.069742907934  -0.344884592361  -0.377941797373
 C831   C  0.430257092066  0.052315294693  -0.414627500295
 C832   C  -0.033057205012  -0.155115407639  -0.085372499705
 C833   C  0.447684705307  -0.122058202627  -0.466942794988
 C834   C  -0.122058202627  -0.466942794988  0.447684705307
 C835   C  -0.155115407639  -0.085372499705  -0.033057205012
 C836   C  -0.377941797373  0.069742907934  -0.344884592361
 C837   C  -0.344884592361  -0.377941797373  0.069742907934
 C838   C  -0.414627500295  0.430257092066  0.052315294693
 C839   C  0.052315294693  -0.414627500295  0.430257092066
 C840   C  -0.085372499705  -0.033057205012  -0.155115407639
 B841   B  -0.030206585241  0.042213815396  0.455390959224
 B842   B  0.086822856172  -0.485597544465  0.044609040776
 B843   B  -0.469793414759  -0.014402455535  0.072420400637
 B844   B  0.413177143828  0.457786184604  0.427579599363
 B845   B  0.455390959224  -0.030206585241  0.042213815396
 B846   B  0.042213815396  0.455390959224  -0.030206585241
 B847   B  0.427579599363  0.413177143828  0.457786184604
 B848   B  -0.485597544465  0.044609040776  0.086822856172
 B849   B  0.044609040776  0.086822856172  -0.485597544465
 B850   B  -0.014402455535  0.072420400637  -0.469793414759
 B851   B  0.072420400637  -0.469793414759  -0.014402455535
 B852   B  0.457786184604  0.427579599363  0.413177143828
 B853   B  -0.457786184604  0.469793414759  -0.044609040776
 B854   B  0.014402455535  -0.413177143828  -0.455390959224
 B855   B  0.485597544465  0.030206585241  -0.427579599363
 B856   B  -0.042213815396  -0.086822856172  -0.072420400637
 B857   B  0.469793414759  -0.044609040776  -0.457786184604
 B858   B  -0.044609040776  -0.457786184604  0.469793414759
 B859   B  -0.086822856172  -0.072420400637  -0.042213815396
 B860   B  -0.455390959224  0.014402455535  -0.413177143828
 B861   B  -0.413177143828  -0.455390959224  0.014402455535
 B862   B  -0.427579599363  0.485597544465  0.030206585241
 B863   B  0.030206585241  -0.427579599363  0.485597544465
 B864   B  -0.072420400637  -0.042213815396  -0.086822856172
 C865   C  -0.135835019475  -0.037221851628  0.342202688996
 C866   C  0.120575459376  -0.478037708471  0.157797311004
 C867   C  -0.364164980525  -0.021962291529  0.098613167848
 C868   C  0.379424540624  -0.462778148372  0.401386832152
 C869   C  0.342202688996  -0.135835019475  -0.037221851628
 C870   C  -0.037221851628  0.342202688996  -0.135835019475
 C871   C  0.401386832152  0.379424540624  -0.462778148372
 C872   C  -0.478037708471  0.157797311004  0.120575459376
 C873   C  0.157797311004  0.120575459376  -0.478037708471
 C874   C  -0.021962291529  0.098613167848  -0.364164980525
 C875   C  0.098613167848  -0.364164980525  -0.021962291529
 C876   C  -0.462778148372  0.401386832152  0.379424540624
 C877   C  0.462778148372  0.364164980525  -0.157797311004
 C878   C  0.021962291529  -0.379424540624  -0.342202688996
 C879   C  0.478037708471  0.135835019475  -0.401386832152
 C880   C  0.037221851628  -0.120575459376  -0.098613167848
 C881   C  0.364164980525  -0.157797311004  0.462778148372
 C882   C  -0.157797311004  0.462778148372  0.364164980525
 C883   C  -0.120575459376  -0.098613167848  0.037221851628
 C884   C  -0.342202688996  0.021962291529  -0.379424540624
 C885   C  -0.379424540624  -0.342202688996  0.021962291529
 C886   C  -0.401386832152  0.478037708471  0.135835019475
 C887   C  0.135835019475  -0.401386832152  0.478037708471
 C888   C  -0.098613167848  0.037221851628  -0.120575459376
 C889   C  -0.375000000000  0.375000000000  0.250000000000
 C890   C  -0.125000000000  0.125000000000  -0.250000000000
 C891   C  0.250000000000  -0.375000000000  0.375000000000
 C892   C  0.375000000000  0.250000000000  -0.375000000000
 C893   C  -0.250000000000  -0.125000000000  0.125000000000
 C894   C  0.125000000000  -0.250000000000  -0.125000000000
