data_Staggered_MSUCOF-4-CoCp_BULK_OPTGEOM_DZ_optimized.outout

_cell_length_a                         37.29863959
_cell_length_b                         37.29863959
_cell_length_c                         37.29863959
_cell_angle_alpha                      109.47122100
_cell_angle_beta                       109.47122100
_cell_angle_gamma                      109.47122100
_symmetry_space_group_name_H-M         'P 1'
_symmetry_Int_Tables_number            1

loop_
_symmetry_equiv_pos_as_xyz
   'x, y, z'

loop_
   _atom_site_label
   _atom_site_type_symbol
   _atom_site_fract_x
   _atom_site_fract_y
   _atom_site_fract_z
 H001   H  0.052306946054  0.009913797378  0.331328311116
 H002   H  0.178585486262  -0.279021365062  0.168671688884
 H003   H  0.447693053946  -0.220978634938  -0.042393148676
 H004   H  0.321414513738  0.490086202622  -0.457606851324
 H005   H  0.331328311116  0.052306946054  0.009913797378
 H006   H  0.009913797378  0.331328311116  0.052306946054
 H007   H  -0.457606851324  0.321414513738  0.490086202622
 H008   H  -0.279021365062  0.168671688884  0.178585486262
 H009   H  0.168671688884  0.178585486262  -0.279021365062
 H010   H  -0.220978634938  -0.042393148676  0.447693053946
 H011   H  -0.042393148676  0.447693053946  -0.220978634938
 H012   H  0.490086202622  -0.457606851324  0.321414513738
 H013   H  -0.490086202622  -0.447693053946  -0.168671688884
 H014   H  0.220978634938  -0.321414513738  -0.331328311116
 H015   H  0.279021365062  -0.052306946054  0.457606851324
 H016   H  -0.009913797378  -0.178585486262  0.042393148676
 H017   H  -0.447693053946  -0.168671688884  -0.490086202622
 H018   H  -0.168671688884  -0.490086202622  -0.447693053946
 H019   H  -0.178585486262  0.042393148676  -0.009913797378
 H020   H  -0.331328311116  0.220978634938  -0.321414513738
 H021   H  -0.321414513738  -0.331328311116  0.220978634938
 H022   H  0.457606851324  0.279021365062  -0.052306946054
 H023   H  -0.052306946054  0.457606851324  0.279021365062
 H024   H  0.042393148676  -0.009913797378  -0.178585486262
 H025   H  -0.078134480186  -0.088239188420  0.293877766685
 H026   H  0.117883044895  -0.372012246871  0.206122233315
 H027   H  -0.421865519814  -0.127987753129  -0.010104708234
 H028   H  0.382116955105  -0.411760811580  -0.489895291766
 H029   H  0.293877766685  -0.078134480186  -0.088239188420
 H030   H  -0.088239188420  0.293877766685  -0.078134480186
 H031   H  -0.489895291766  0.382116955105  -0.411760811580
 H032   H  -0.372012246871  0.206122233315  0.117883044895
 H033   H  0.206122233315  0.117883044895  -0.372012246871
 H034   H  -0.127987753129  -0.010104708234  -0.421865519814
 H035   H  -0.010104708234  -0.421865519814  -0.127987753129
 H036   H  -0.411760811580  -0.489895291766  0.382116955105
 H037   H  0.411760811580  0.421865519814  -0.206122233315
 H038   H  0.127987753129  -0.382116955105  -0.293877766685
 H039   H  0.372012246871  0.078134480186  0.489895291766
 H040   H  0.088239188420  -0.117883044895  0.010104708234
 H041   H  0.421865519814  -0.206122233315  0.411760811580
 H042   H  -0.206122233315  0.411760811580  0.421865519814
 H043   H  -0.117883044895  0.010104708234  0.088239188420
 H044   H  -0.293877766685  0.127987753129  -0.382116955105
 H045   H  -0.382116955105  -0.293877766685  0.127987753129
 H046   H  0.489895291766  0.372012246871  0.078134480186
 H047   H  0.078134480186  0.489895291766  0.372012246871
 H048   H  0.010104708234  0.088239188420  -0.117883044895
 H049   H  -0.028015711494  -0.047035262206  0.381779578812
 H050   H  0.071185158982  -0.409795290306  0.118220421188
 H051   H  -0.471984288506  -0.090204709694  -0.019019550712
 H052   H  0.428814841018  -0.452964737794  -0.480980449288
 H053   H  0.381779578812  -0.028015711494  -0.047035262206
 H054   H  -0.047035262206  0.381779578812  -0.028015711494
 H055   H  -0.480980449288  0.428814841018  -0.452964737794
 H056   H  -0.409795290306  0.118220421188  0.071185158982
 H057   H  0.118220421188  0.071185158982  -0.409795290306
 H058   H  -0.090204709694  -0.019019550712  -0.471984288506
 H059   H  -0.019019550712  -0.471984288506  -0.090204709694
 H060   H  -0.452964737794  -0.480980449288  0.428814841018
 H061   H  0.452964737794  0.471984288506  -0.118220421188
 H062   H  0.090204709694  -0.428814841018  -0.381779578812
 H063   H  0.409795290306  0.028015711494  0.480980449288
 H064   H  0.047035262206  -0.071185158982  0.019019550712
 H065   H  0.471984288506  -0.118220421188  0.452964737794
 H066   H  -0.118220421188  0.452964737794  0.471984288506
 H067   H  -0.071185158982  0.019019550712  0.047035262206
 H068   H  -0.381779578812  0.090204709694  -0.428814841018
 H069   H  -0.428814841018  -0.381779578812  0.090204709694
 H070   H  0.480980449288  0.409795290306  0.028015711494
 H071   H  0.028015711494  0.480980449288  0.409795290306
 H072   H  0.019019550712  0.047035262206  -0.071185158982
 H073   H  -0.028820549733  -0.051883596574  0.262906121220
 H074   H  0.185210282206  -0.291726670953  0.237093878780
 H075   H  -0.471179450267  -0.208273329047  -0.023063046841
 H076   H  0.314789717794  -0.448116403426  -0.476936953159
 H077   H  0.262906121220  -0.028820549733  -0.051883596574
 H078   H  -0.051883596574  0.262906121220  -0.028820549733
 H079   H  -0.476936953159  0.314789717794  -0.448116403426
 H080   H  -0.291726670953  0.237093878780  0.185210282206
 H081   H  0.237093878780  0.185210282206  -0.291726670953
 H082   H  -0.208273329047  -0.023063046841  -0.471179450267
 H083   H  -0.023063046841  -0.471179450267  -0.208273329047
 H084   H  -0.448116403426  -0.476936953159  0.314789717794
 H085   H  0.448116403426  0.471179450267  -0.237093878780
 H086   H  0.208273329047  -0.314789717794  -0.262906121220
 H087   H  0.291726670953  0.028820549733  0.476936953159
 H088   H  0.051883596574  -0.185210282206  0.023063046841
 H089   H  0.471179450267  -0.237093878780  0.448116403426
 H090   H  -0.237093878780  0.448116403426  0.471179450267
 H091   H  -0.185210282206  0.023063046841  0.051883596574
 H092   H  -0.262906121220  0.208273329047  -0.314789717794
 H093   H  -0.314789717794  -0.262906121220  0.208273329047
 H094   H  0.476936953159  0.291726670953  0.028820549733
 H095   H  0.028820549733  0.476936953159  0.291726670953
 H096   H  0.023063046841  0.051883596574  -0.185210282206
 C097   C  0.025006624760  -0.010465524005  0.332939796419
 C098   C  0.156594679577  -0.307933171659  0.167060203582
 C099   C  0.474993375240  -0.192066828341  -0.035472148764
 C100   C  0.343405320423  -0.489534475995  -0.464527851236
 C101   C  0.332939796419  0.025006624760  -0.010465524005
 C102   C  -0.010465524005  0.332939796419  0.025006624760
 C103   C  -0.464527851236  0.343405320423  -0.489534475995
 C104   C  -0.307933171659  0.167060203582  0.156594679577
 C105   C  0.167060203582  0.156594679577  -0.307933171659
 C106   C  -0.192066828341  -0.035472148764  0.474993375240
 C107   C  -0.035472148764  0.474993375240  -0.192066828341
 C108   C  -0.489534475995  -0.464527851236  0.343405320423
 C109   C  0.489534475995  -0.474993375240  -0.167060203582
 C110   C  0.192066828341  -0.343405320423  -0.332939796419
 C111   C  0.307933171659  -0.025006624760  0.464527851236
 C112   C  0.010465524005  -0.156594679577  0.035472148764
 C113   C  -0.474993375240  -0.167060203582  0.489534475995
 C114   C  -0.167060203582  0.489534475995  -0.474993375240
 C115   C  -0.156594679577  0.035472148764  0.010465524005
 C116   C  -0.332939796419  0.192066828341  -0.343405320423
 C117   C  -0.343405320423  -0.332939796419  0.192066828341
 C118   C  0.464527851236  0.307933171659  -0.025006624760
 C119   C  -0.025006624760  0.464527851236  0.307933171659
 C120   C  0.035472148764  0.010465524005  -0.156594679577
 C121   C  0.024643245566  -0.008086150861  0.371715934658
 C122   C  0.120197914480  -0.347072689092  0.128284065342
 C123   C  0.475356754434  -0.152927310908  -0.032729396428
 C124   C  0.379802085520  -0.491913849139  -0.467270603572
 C125   C  0.371715934658  0.024643245566  -0.008086150861
 C126   C  -0.008086150861  0.371715934658  0.024643245566
 C127   C  -0.467270603572  0.379802085520  -0.491913849139
 C128   C  -0.347072689092  0.128284065342  0.120197914480
 C129   C  0.128284065342  0.120197914480  -0.347072689092
 C130   C  -0.152927310908  -0.032729396428  0.475356754434
 C131   C  -0.032729396428  0.475356754434  -0.152927310908
 C132   C  -0.491913849139  -0.467270603572  0.379802085520
 C133   C  0.491913849139  -0.475356754434  -0.128284065342
 C134   C  0.152927310908  -0.379802085520  -0.371715934658
 C135   C  0.347072689092  -0.024643245566  0.467270603572
 C136   C  0.008086150861  -0.120197914480  0.032729396428
 C137   C  -0.475356754434  -0.128284065342  0.491913849139
 C138   C  -0.128284065342  0.491913849139  -0.475356754434
 C139   C  -0.120197914480  0.032729396428  0.008086150861
 C140   C  -0.371715934658  0.152927310908  -0.379802085520
 C141   C  -0.379802085520  -0.371715934658  0.152927310908
 C142   C  0.467270603572  0.347072689092  -0.024643245566
 C143   C  -0.024643245566  0.467270603572  0.347072689092
 C144   C  0.032729396428  0.008086150861  -0.120197914480
 C145   C  -0.017918831188  -0.042591494671  0.297101140698
 C146   C  0.160307364631  -0.315019971886  0.202898859302
 C147   C  -0.482081168812  -0.184980028114  -0.024672663483
 C148   C  0.339692635369  -0.457408505329  -0.475327336517
 C149   C  0.297101140698  -0.017918831188  -0.042591494671
 C150   C  -0.042591494671  0.297101140698  -0.017918831188
 C151   C  -0.475327336517  0.339692635369  -0.457408505329
 C152   C  -0.315019971886  0.202898859302  0.160307364631
 C153   C  0.202898859302  0.160307364631  -0.315019971886
 C154   C  -0.184980028114  -0.024672663483  -0.482081168812
 C155   C  -0.024672663483  -0.482081168812  -0.184980028114
 C156   C  -0.457408505329  -0.475327336517  0.339692635369
 C157   C  0.457408505329  0.482081168812  -0.202898859302
 C158   C  0.184980028114  -0.339692635369  -0.297101140698
 C159   C  0.315019971886  0.017918831188  0.475327336517
 C160   C  0.042591494671  -0.160307364631  0.024672663483
 C161   C  0.482081168812  -0.202898859302  0.457408505329
 C162   C  -0.202898859302  0.457408505329  0.482081168812
 C163   C  -0.160307364631  0.024672663483  0.042591494671
 C164   C  -0.297101140698  0.184980028114  -0.339692635369
 C165   C  -0.339692635369  -0.297101140698  0.184980028114
 C166   C  0.475327336517  0.315019971886  0.017918831188
 C167   C  0.017918831188  0.475327336517  0.315019971886
 C168   C  0.024672663483  0.042591494671  -0.160307364631
Co169  Co  -0.023072394103  0.004271192561  0.341189725758
Co170  Co  0.163081466803  -0.364262119861  0.158810274241
Co171  Co  -0.476927605897  -0.135737880139  0.027343586664
Co172  Co  0.336918533197  0.495728807439  0.472656413336
Co173  Co  0.341189725758  -0.023072394103  0.004271192561
Co174  Co  0.004271192561  0.341189725758  -0.023072394103
Co175  Co  0.472656413336  0.336918533197  0.495728807439
Co176  Co  -0.364262119861  0.158810274241  0.163081466803
Co177  Co  0.158810274241  0.163081466803  -0.364262119861
Co178  Co  -0.135737880139  0.027343586664  -0.476927605897
Co179  Co  0.027343586664  -0.476927605897  -0.135737880139
Co180  Co  0.495728807439  0.472656413336  0.336918533197
Co181  Co  -0.495728807439  0.476927605897  -0.158810274241
Co182  Co  0.135737880139  -0.336918533197  -0.341189725758
Co183  Co  0.364262119861  0.023072394103  -0.472656413336
Co184  Co  -0.004271192561  -0.163081466803  -0.027343586664
Co185  Co  0.476927605897  -0.158810274241  -0.495728807439
Co186  Co  -0.158810274241  -0.495728807439  0.476927605897
Co187  Co  -0.163081466803  -0.027343586664  -0.004271192561
Co188  Co  -0.341189725758  0.135737880139  -0.336918533197
Co189  Co  -0.336918533197  -0.341189725758  0.135737880139
Co190  Co  -0.472656413336  0.364262119861  0.023072394103
Co191  Co  0.023072394103  -0.472656413336  0.364262119861
Co192  Co  -0.027343586664  -0.004271192561  -0.163081466803
 H193   H  0.019794348406  0.085908921920  0.417440741430
 H194   H  0.168468180490  -0.397646393024  0.082559258570
 H195   H  0.480205651594  -0.102353606976  0.066114573514
 H196   H  0.331531819510  0.414091078080  0.433885426486
 H197   H  0.417440741430  0.019794348406  0.085908921920
 H198   H  0.085908921920  0.417440741430  0.019794348406
 H199   H  0.433885426486  0.331531819510  0.414091078080
 H200   H  -0.397646393024  0.082559258570  0.168468180490
 H201   H  0.082559258570  0.168468180490  -0.397646393024
 H202   H  -0.102353606976  0.066114573514  0.480205651594
 H203   H  0.066114573514  0.480205651594  -0.102353606976
 H204   H  0.414091078080  0.433885426486  0.331531819510
 H205   H  -0.414091078080  -0.480205651594  -0.082559258570
 H206   H  0.102353606976  -0.331531819510  -0.417440741430
 H207   H  0.397646393024  -0.019794348406  -0.433885426486
 H208   H  -0.085908921920  -0.168468180490  -0.066114573514
 H209   H  -0.480205651594  -0.082559258570  -0.414091078080
 H210   H  -0.082559258570  -0.414091078080  -0.480205651594
 H211   H  -0.168468180490  -0.066114573514  -0.085908921920
 H212   H  -0.417440741430  0.102353606976  -0.331531819510
 H213   H  -0.331531819510  -0.417440741430  0.102353606976
 H214   H  -0.433885426486  0.397646393024  -0.019794348406
 H215   H  -0.019794348406  -0.433885426486  0.397646393024
 H216   H  -0.066114573514  -0.085908921920  -0.168468180490
 C217   C  -0.043885707046  -0.062610936684  0.313340047321
 C218   C  0.124049015994  -0.357225754368  0.186659952679
 C219   C  -0.456114292954  -0.142774245632  -0.018725229638
 C220   C  0.375950984006  -0.437389063316  -0.481274770362
 C221   C  0.313340047321  -0.043885707046  -0.062610936684
 C222   C  -0.062610936684  0.313340047321  -0.043885707046
 C223   C  -0.481274770362  0.375950984006  -0.437389063316
 C224   C  -0.357225754368  0.186659952679  0.124049015994
 C225   C  0.186659952679  0.124049015994  -0.357225754368
 C226   C  -0.142774245632  -0.018725229638  -0.456114292954
 C227   C  -0.018725229638  -0.456114292954  -0.142774245632
 C228   C  -0.437389063316  -0.481274770362  0.375950984006
 C229   C  0.437389063316  0.456114292954  -0.186659952679
 C230   C  0.142774245632  -0.375950984006  -0.313340047321
 C231   C  0.357225754368  0.043885707046  0.481274770362
 C232   C  0.062610936684  -0.124049015994  0.018725229638
 C233   C  0.456114292954  -0.186659952679  0.437389063316
 C234   C  -0.186659952679  0.437389063316  0.456114292954
 C235   C  -0.124049015994  0.018725229638  0.062610936684
 C236   C  -0.313340047321  0.142774245632  -0.375950984006
 C237   C  -0.375950984006  -0.313340047321  0.142774245632
 C238   C  0.481274770362  0.357225754368  0.043885707046
 C239   C  0.043885707046  0.481274770362  0.357225754368
 C240   C  0.018725229638  0.062610936684  -0.124049015994
 H241   H  0.007633445753  0.085239216030  0.341549001524
 H242   H  0.243690214505  -0.333915555771  0.158450998476
 H243   H  0.492366554247  -0.166084444229  0.077605770277
 H244   H  0.256309785495  0.414760783970  0.422394229723
 H245   H  0.341549001524  0.007633445753  0.085239216030
 H246   H  0.085239216030  0.341549001524  0.007633445753
 H247   H  0.422394229723  0.256309785495  0.414760783970
 H248   H  -0.333915555771  0.158450998476  0.243690214505
 H249   H  0.158450998476  0.243690214505  -0.333915555771
 H250   H  -0.166084444229  0.077605770277  0.492366554247
 H251   H  0.077605770277  0.492366554247  -0.166084444229
 H252   H  0.414760783970  0.422394229723  0.256309785495
 H253   H  -0.414760783970  -0.492366554247  -0.158450998476
 H254   H  0.166084444229  -0.256309785495  -0.341549001524
 H255   H  0.333915555771  -0.007633445753  -0.422394229723
 H256   H  -0.085239216030  -0.243690214505  -0.077605770277
 H257   H  -0.492366554247  -0.158450998476  -0.414760783970
 H258   H  -0.158450998476  -0.414760783970  -0.492366554247
 H259   H  -0.243690214505  -0.077605770277  -0.085239216030
 H260   H  -0.341549001524  0.166084444229  -0.256309785495
 H261   H  -0.256309785495  -0.341549001524  0.166084444229
 H262   H  -0.422394229723  0.333915555771  -0.007633445753
 H263   H  -0.007633445753  -0.422394229723  0.333915555771
 H264   H  -0.077605770277  -0.085239216030  -0.243690214505
 C265   C  -0.058728520800  0.027859513392  0.311643553995
 C266   C  0.216215959397  -0.370372074794  0.188356446005
 C267   C  -0.441271479200  -0.129627925206  0.086588034191
 C268   C  0.283784040603  0.472140486608  0.413411965809
 C269   C  0.311643553995  -0.058728520800  0.027859513392
 C270   C  0.027859513392  0.311643553995  -0.058728520800
 C271   C  0.413411965809  0.283784040603  0.472140486608
 C272   C  -0.370372074794  0.188356446005  0.216215959397
 C273   C  0.188356446005  0.216215959397  -0.370372074794
 C274   C  -0.129627925206  0.086588034191  -0.441271479200
 C275   C  0.086588034191  -0.441271479200  -0.129627925206
 C276   C  0.472140486608  0.413411965809  0.283784040603
 C277   C  -0.472140486608  0.441271479200  -0.188356446005
 C278   C  0.129627925206  -0.283784040603  -0.311643553995
 C279   C  0.370372074794  0.058728520800  -0.413411965809
 C280   C  -0.027859513392  -0.216215959397  -0.086588034191
 C281   C  0.441271479200  -0.188356446005  -0.472140486608
 C282   C  -0.188356446005  -0.472140486608  0.441271479200
 C283   C  -0.216215959397  -0.086588034191  -0.027859513392
 C284   C  -0.311643553995  0.129627925206  -0.283784040603
 C285   C  -0.283784040603  -0.311643553995  0.129627925206
 C286   C  -0.413411965809  0.370372074794  0.058728520800
 C287   C  0.058728520800  -0.413411965809  0.370372074794
 C288   C  -0.086588034191  -0.027859513392  -0.216215959397
 C289   C  -0.009688395184  0.063603763676  0.385516752997
 C290   C  0.178087010679  -0.395205148181  0.114483247003
 C291   C  -0.490311604816  -0.104794851819  0.073292158860
 C292   C  0.321912989321  0.436396236324  0.426707841140
 C293   C  0.385516752997  -0.009688395184  0.063603763676
 C294   C  0.063603763676  0.385516752997  -0.009688395184
 C295   C  0.426707841140  0.321912989321  0.436396236324
 C296   C  -0.395205148181  0.114483247003  0.178087010679
 C297   C  0.114483247003  0.178087010679  -0.395205148181
 C298   C  -0.104794851819  0.073292158860  -0.490311604816
 C299   C  0.073292158860  -0.490311604816  -0.104794851819
 C300   C  0.436396236324  0.426707841140  0.321912989321
 C301   C  -0.436396236324  0.490311604816  -0.114483247003
 C302   C  0.104794851819  -0.321912989321  -0.385516752997
 C303   C  0.395205148181  0.009688395184  -0.426707841140
 C304   C  -0.063603763676  -0.178087010679  -0.073292158860
 C305   C  0.490311604816  -0.114483247003  -0.436396236324
 C306   C  -0.114483247003  -0.436396236324  0.490311604816
 C307   C  -0.178087010679  -0.073292158860  -0.063603763676
 C308   C  -0.385516752997  0.104794851819  -0.321912989321
 C309   C  -0.321912989321  -0.385516752997  0.104794851819
 C310   C  -0.426707841140  0.395205148181  0.009688395184
 C311   C  0.009688395184  -0.426707841140  0.395205148181
 C312   C  -0.073292158860  -0.063603763676  -0.178087010679
 C313   C  -0.016380139957  0.063529927864  0.345729969271
 C314   C  0.217799958593  -0.362110109228  0.154270030729
 C315   C  -0.483619860043  -0.137889890772  0.079910067820
 C316   C  0.282200041407  0.436470072136  0.420089932180
 C317   C  0.345729969271  -0.016380139957  0.063529927864
 C318   C  0.063529927864  0.345729969271  -0.016380139957
 C319   C  0.420089932180  0.282200041407  0.436470072136
 C320   C  -0.362110109228  0.154270030729  0.217799958593
 C321   C  0.154270030729  0.217799958593  -0.362110109228
 C322   C  -0.137889890772  0.079910067820  -0.483619860043
 C323   C  0.079910067820  -0.483619860043  -0.137889890772
 C324   C  0.436470072136  0.420089932180  0.282200041407
 C325   C  -0.436470072136  0.483619860043  -0.154270030729
 C326   C  0.137889890772  -0.282200041407  -0.345729969271
 C327   C  0.362110109228  0.016380139957  -0.420089932180
 C328   C  -0.063529927864  -0.217799958593  -0.079910067820
 C329   C  0.483619860043  -0.154270030729  -0.436470072136
 C330   C  -0.154270030729  -0.436470072136  0.483619860043
 C331   C  -0.217799958593  -0.079910067820  -0.063529927864
 C332   C  -0.345729969271  0.137889890772  -0.282200041407
 C333   C  -0.282200041407  -0.345729969271  0.137889890772
 C334   C  -0.420089932180  0.362110109228  0.016380139957
 C335   C  0.016380139957  -0.420089932180  0.362110109228
 C336   C  -0.079910067820  -0.063529927864  -0.217799958593
 H337   H  -0.073474711256  0.019205922307  0.277426000353
 H338   H  0.241779921954  -0.350900711609  0.222573999647
 H339   H  -0.426525288744  -0.149099288391  0.092680633563
 H340   H  0.258220078046  0.480794077693  0.407319366437
 H341   H  0.277426000353  -0.073474711256  0.019205922307
 H342   H  0.019205922307  0.277426000353  -0.073474711256
 H343   H  0.407319366437  0.258220078046  0.480794077693
 H344   H  -0.350900711609  0.222573999647  0.241779921954
 H345   H  0.222573999647  0.241779921954  -0.350900711609
 H346   H  -0.149099288391  0.092680633563  -0.426525288744
 H347   H  0.092680633563  -0.426525288744  -0.149099288391
 H348   H  0.480794077693  0.407319366437  0.258220078046
 H349   H  -0.480794077693  0.426525288744  -0.222573999647
 H350   H  0.149099288391  -0.258220078046  -0.277426000353
 H351   H  0.350900711609  0.073474711256  -0.407319366437
 H352   H  -0.019205922307  -0.241779921954  -0.092680633563
 H353   H  0.426525288744  -0.222573999647  -0.480794077693
 H354   H  -0.222573999647  -0.480794077693  0.426525288744
 H355   H  -0.241779921954  -0.092680633563  -0.019205922307
 H356   H  -0.277426000353  0.149099288391  -0.258220078046
 H357   H  -0.258220078046  -0.277426000353  0.149099288391
 H358   H  -0.407319366437  0.350900711609  0.073474711256
 H359   H  0.073474711256  -0.407319366437  0.350900711609
 H360   H  -0.092680633563  -0.019205922307  -0.241779921954
 H361   H  0.052040862788  0.014086890597  0.405030151319
 H362   H  0.109056739278  -0.352989288531  0.094969848681
 H363   H  0.447959137212  -0.147010711469  -0.037953972190
 H364   H  0.390943260722  0.485913109403  -0.462046027809
 H365   H  0.405030151319  0.052040862788  0.014086890597
 H366   H  0.014086890597  0.405030151319  0.052040862788
 H367   H  -0.462046027809  0.390943260722  0.485913109403
 H368   H  -0.352989288531  0.094969848681  0.109056739278
 H369   H  0.094969848681  0.109056739278  -0.352989288531
 H370   H  -0.147010711469  -0.037953972190  0.447959137212
 H371   H  -0.037953972190  0.447959137212  -0.147010711469
 H372   H  0.485913109403  -0.462046027809  0.390943260722
 H373   H  -0.485913109403  -0.447959137212  -0.094969848681
 H374   H  0.147010711469  -0.390943260722  -0.405030151319
 H375   H  0.352989288531  -0.052040862788  0.462046027809
 H376   H  -0.014086890597  -0.109056739278  0.037953972190
 H377   H  -0.447959137212  -0.094969848681  -0.485913109403
 H378   H  -0.094969848681  -0.485913109403  -0.447959137212
 H379   H  -0.109056739278  0.037953972190  -0.014086890597
 H380   H  -0.405030151319  0.147010711469  -0.390943260722
 H381   H  -0.390943260722  -0.405030151319  0.147010711469
 H382   H  0.462046027809  0.352989288531  -0.052040862788
 H383   H  -0.052040862788  0.462046027809  0.352989288531
 H384   H  0.037953972190  -0.014086890597  -0.109056739278
 O385   O  0.014661920473  0.062052079015  0.470517955601
 O386   O  0.091534123414  -0.455856035128  0.029482044399
 O387   O  0.485338079527  -0.044143964872  0.047390158542
 O388   O  0.408465876586  0.437947920985  0.452609841458
 O389   O  0.470517955601  0.014661920473  0.062052079015
 O390   O  0.062052079015  0.470517955601  0.014661920473
 O391   O  0.452609841458  0.408465876586  0.437947920985
 O392   O  -0.455856035128  0.029482044399  0.091534123414
 O393   O  0.029482044399  0.091534123414  -0.455856035128
 O394   O  -0.044143964872  0.047390158542  0.485338079527
 O395   O  0.047390158542  0.485338079527  -0.044143964872
 O396   O  0.437947920985  0.452609841458  0.408465876586
 O397   O  -0.437947920985  -0.485338079527  -0.029482044399
 O398   O  0.044143964872  -0.408465876586  -0.470517955601
 O399   O  0.455856035128  -0.014661920473  -0.452609841458
 O400   O  -0.062052079015  -0.091534123414  -0.047390158542
 O401   O  -0.485338079527  -0.029482044399  -0.437947920985
 O402   O  -0.029482044399  -0.437947920985  -0.485338079527
 O403   O  -0.091534123414  -0.047390158542  -0.062052079015
 O404   O  -0.470517955601  0.044143964872  -0.408465876586
 O405   O  -0.408465876586  -0.470517955601  0.044143964872
 O406   O  -0.452609841458  0.455856035128  -0.014661920473
 O407   O  -0.014661920473  -0.452609841458  0.455856035128
 O408   O  -0.047390158542  -0.062052079015  -0.091534123414
 H409   H  -0.159693965293  -0.091408409605  0.166949270955
 H410   H  0.241642319440  -0.326643236248  0.333050729045
 H411   H  -0.340306034707  -0.173356763752  0.068285555688
 H412   H  0.258357680560  -0.408591590395  0.431714444312
 H413   H  0.166949270955  -0.159693965293  -0.091408409605
 H414   H  -0.091408409605  0.166949270955  -0.159693965293
 H415   H  0.431714444312  0.258357680560  -0.408591590395
 H416   H  -0.326643236248  0.333050729045  0.241642319440
 H417   H  0.333050729045  0.241642319440  -0.326643236248
 H418   H  -0.173356763752  0.068285555688  -0.340306034707
 H419   H  0.068285555688  -0.340306034707  -0.173356763752
 H420   H  -0.408591590395  0.431714444312  0.258357680560
 H421   H  0.408591590395  0.340306034707  -0.333050729045
 H422   H  0.173356763752  -0.258357680560  -0.166949270955
 H423   H  0.326643236248  0.159693965293  -0.431714444312
 H424   H  0.091408409605  -0.241642319440  -0.068285555688
 H425   H  0.340306034707  -0.333050729045  0.408591590395
 H426   H  -0.333050729045  0.408591590395  0.340306034707
 H427   H  -0.241642319440  -0.068285555688  0.091408409605
 H428   H  -0.166949270955  0.173356763752  -0.258357680560
 H429   H  -0.258357680560  -0.166949270955  0.173356763752
 H430   H  -0.431714444312  0.326643236248  0.159693965293
 H431   H  0.159693965293  -0.431714444312  0.326643236248
 H432   H  -0.068285555688  0.091408409605  -0.241642319440
 H433   H  -0.167666545519  -0.063125249709  0.328958351225
 H434   H  0.107916399066  -0.496624896744  0.171041648775
 H435   H  -0.332333454481  -0.003375103256  0.104541295811
 H436   H  0.392083600933  -0.436874750291  0.395458704189
 H437   H  0.328958351225  -0.167666545519  -0.063125249709
 H438   H  -0.063125249709  0.328958351225  -0.167666545519
 H439   H  0.395458704189  0.392083600933  -0.436874750291
 H440   H  -0.496624896744  0.171041648775  0.107916399066
 H441   H  0.171041648775  0.107916399066  -0.496624896744
 H442   H  -0.003375103256  0.104541295811  -0.332333454481
 H443   H  0.104541295811  -0.332333454481  -0.003375103256
 H444   H  -0.436874750291  0.395458704189  0.392083600933
 H445   H  0.436874750291  0.332333454481  -0.171041648775
 H446   H  0.003375103256  -0.392083600933  -0.328958351225
 H447   H  0.496624896744  0.167666545519  -0.395458704189
 H448   H  0.063125249709  -0.107916399066  -0.104541295811
 H449   H  0.332333454481  -0.171041648775  0.436874750291
 H450   H  -0.171041648775  0.436874750291  0.332333454481
 H451   H  -0.107916399066  -0.104541295811  0.063125249709
 H452   H  -0.328958351225  0.003375103256  -0.392083600933
 H453   H  -0.392083600933  -0.328958351225  0.003375103256
 H454   H  -0.395458704189  0.496624896744  0.167666545519
 H455   H  0.167666545519  -0.395458704189  0.496624896744
 H456   H  -0.104541295811  0.063125249709  -0.107916399066
 C457   C  -0.017461114193  -0.041502198276  0.359356175990
 C458   C  0.099141625734  -0.376817290183  0.140643824010
 C459   C  -0.482538885807  -0.123182709817  -0.024041084084
 C460   C  0.400858374266  -0.458497801724  -0.475958915917
 C461   C  0.359356175990  -0.017461114193  -0.041502198276
 C462   C  -0.041502198276  0.359356175990  -0.017461114193
 C463   C  -0.475958915917  0.400858374266  -0.458497801724
 C464   C  -0.376817290183  0.140643824010  0.099141625734
 C465   C  0.140643824010  0.099141625734  -0.376817290183
 C466   C  -0.123182709817  -0.024041084084  -0.482538885807
 C467   C  -0.024041084084  -0.482538885807  -0.123182709817
 C468   C  -0.458497801724  -0.475958915917  0.400858374266
 C469   C  0.458497801724  0.482538885807  -0.140643824010
 C470   C  0.123182709817  -0.400858374266  -0.359356175990
 C471   C  0.376817290183  0.017461114193  0.475958915917
 C472   C  0.041502198276  -0.099141625734  0.024041084084
 C473   C  0.482538885807  -0.140643824010  0.458497801724
 C474   C  -0.140643824010  0.458497801724  0.482538885807
 C475   C  -0.099141625734  0.024041084084  0.041502198276
 C476   C  -0.359356175990  0.123182709817  -0.400858374266
 C477   C  -0.400858374266  -0.359356175990  0.123182709817
 C478   C  0.475958915917  0.376817290183  0.017461114193
 C479   C  0.017461114193  0.475958915917  0.376817290183
 C480   C  0.024041084084  0.041502198276  -0.099141625734
 H481   H  -0.264382077196  -0.098595500039  0.193610469769
 H482   H  0.207794030192  -0.457992546965  0.306389530231
 H483   H  -0.235617922804  -0.042007453035  0.165786577157
 H484   H  0.292205969808  -0.401404499960  0.334213422843
 H485   H  0.193610469769  -0.264382077196  -0.098595500039
 H486   H  -0.098595500039  0.193610469769  -0.264382077196
 H487   H  0.334213422843  0.292205969808  -0.401404499960
 H488   H  -0.457992546965  0.306389530231  0.207794030192
 H489   H  0.306389530231  0.207794030192  -0.457992546965
 H490   H  -0.042007453035  0.165786577157  -0.235617922804
 H491   H  0.165786577157  -0.235617922804  -0.042007453035
 H492   H  -0.401404499960  0.334213422843  0.292205969808
 H493   H  0.401404499960  0.235617922804  -0.306389530231
 H494   H  0.042007453035  -0.292205969808  -0.193610469769
 H495   H  0.457992546965  0.264382077196  -0.334213422843
 H496   H  0.098595500039  -0.207794030192  -0.165786577157
 H497   H  0.235617922804  -0.306389530231  0.401404499960
 H498   H  -0.306389530231  0.401404499960  0.235617922804
 H499   H  -0.207794030192  -0.165786577157  0.098595500039
 H500   H  -0.193610469769  0.042007453035  -0.292205969808
 H501   H  -0.292205969808  -0.193610469769  0.042007453035
 H502   H  -0.334213422843  0.457992546965  0.264382077196
 H503   H  0.264382077196  -0.334213422843  0.457992546965
 H504   H  -0.165786577157  0.098595500039  -0.207794030192
 H505   H  -0.211603876302  -0.057060307450  0.273155140833
 H506   H  0.169784551717  -0.484759017134  0.226844859167
 H507   H  -0.288396123698  -0.015240982866  0.154543568852
 H508   H  0.330215448283  -0.442939692550  0.345456431148
 H509   H  0.273155140833  -0.211603876302  -0.057060307450
 H510   H  -0.057060307450  0.273155140833  -0.211603876302
 H511   H  0.345456431148  0.330215448283  -0.442939692550
 H512   H  -0.484759017134  0.226844859167  0.169784551717
 H513   H  0.226844859167  0.169784551717  -0.484759017134
 H514   H  -0.015240982866  0.154543568852  -0.288396123698
 H515   H  0.154543568852  -0.288396123698  -0.015240982866
 H516   H  -0.442939692550  0.345456431148  0.330215448283
 H517   H  0.442939692550  0.288396123698  -0.226844859167
 H518   H  0.015240982866  -0.330215448283  -0.273155140833
 H519   H  0.484759017134  0.211603876302  -0.345456431148
 H520   H  0.057060307450  -0.169784551717  -0.154543568852
 H521   H  0.288396123698  -0.226844859167  0.442939692550
 H522   H  -0.226844859167  0.442939692550  0.288396123698
 H523   H  -0.169784551717  -0.154543568852  0.057060307450
 H524   H  -0.273155140833  0.015240982866  -0.330215448283
 H525   H  -0.330215448283  -0.273155140833  0.015240982866
 H526   H  -0.345456431148  0.484759017134  0.211603876302
 H527   H  0.211603876302  -0.345456431148  0.484759017134
 H528   H  -0.154543568852  0.057060307450  -0.169784551717
 H529   H  -0.115789927069  -0.022044554536  0.408750746098
 H530   H  0.069204699367  0.475459326833  0.091249253902
 H531   H  -0.384210072931  0.024540673167  0.093745372533
 H532   H  0.430795300634  -0.477955445464  0.406254627466
 H533   H  0.408750746098  -0.115789927069  -0.022044554536
 H534   H  -0.022044554536  0.408750746098  -0.115789927069
 H535   H  0.406254627466  0.430795300634  -0.477955445464
 H536   H  0.475459326833  0.091249253902  0.069204699367
 H537   H  0.091249253902  0.069204699367  0.475459326833
 H538   H  0.024540673167  0.093745372533  -0.384210072931
 H539   H  0.093745372533  -0.384210072931  0.024540673167
 H540   H  -0.477955445464  0.406254627466  0.430795300634
 H541   H  0.477955445464  0.384210072931  -0.091249253902
 H542   H  -0.024540673167  -0.430795300634  -0.408750746098
 H543   H  -0.475459326833  0.115789927069  -0.406254627466
 H544   H  0.022044554536  -0.069204699367  -0.093745372533
 H545   H  0.384210072931  -0.091249253902  0.477955445464
 H546   H  -0.091249253902  0.477955445464  0.384210072931
 H547   H  -0.069204699367  -0.093745372533  0.022044554536
 H548   H  -0.408750746098  -0.024540673167  -0.430795300634
 H549   H  -0.430795300634  -0.408750746098  -0.024540673167
 H550   H  -0.406254627466  -0.475459326833  0.115789927069
 H551   H  0.115789927069  -0.406254627466  -0.475459326833
 H552   H  -0.093745372533  0.022044554536  -0.069204699367
 H553   H  -0.107524281565  -0.052659605831  0.246178155987
 H554   H  0.201162238182  -0.353702437551  0.253821844013
 H555   H  -0.392475718435  -0.146297562449  0.054864675734
 H556   H  0.298837761818  -0.447340394169  0.445135324266
 H557   H  0.246178155987  -0.107524281565  -0.052659605831
 H558   H  -0.052659605831  0.246178155987  -0.107524281565
 H559   H  0.445135324266  0.298837761818  -0.447340394169
 H560   H  -0.353702437551  0.253821844013  0.201162238182
 H561   H  0.253821844013  0.201162238182  -0.353702437551
 H562   H  -0.146297562449  0.054864675734  -0.392475718435
 H563   H  0.054864675734  -0.392475718435  -0.146297562449
 H564   H  -0.447340394169  0.445135324266  0.298837761818
 H565   H  0.447340394169  0.392475718435  -0.253821844013
 H566   H  0.146297562449  -0.298837761818  -0.246178155987
 H567   H  0.353702437551  0.107524281565  -0.445135324266
 H568   H  0.052659605831  -0.201162238182  -0.054864675734
 H569   H  0.392475718435  -0.253821844013  0.447340394169
 H570   H  -0.253821844013  0.447340394169  0.392475718435
 H571   H  -0.201162238182  -0.054864675734  0.052659605831
 H572   H  -0.246178155987  0.146297562449  -0.298837761818
 H573   H  -0.298837761818  -0.246178155987  0.146297562449
 H574   H  -0.445135324266  0.353702437551  0.107524281565
 H575   H  0.107524281565  -0.445135324266  0.353702437551
 H576   H  -0.054864675734  0.052659605831  -0.201162238182
 C577   C  -0.229920904625  -0.089043003161  0.205144153733
 C578   C  0.205812843106  -0.435065058358  0.294855846267
 C579   C  -0.270079095374  -0.064934941642  0.140877901464
 C580   C  0.294187156894  -0.410956996839  0.359122098536
 C581   C  0.205144153733  -0.229920904625  -0.089043003161
 C582   C  -0.089043003161  0.205144153733  -0.229920904625
 C583   C  0.359122098536  0.294187156894  -0.410956996839
 C584   C  -0.435065058358  0.294855846267  0.205812843106
 C585   C  0.294855846267  0.205812843106  -0.435065058358
 C586   C  -0.064934941642  0.140877901464  -0.270079095374
 C587   C  0.140877901464  -0.270079095374  -0.064934941642
 C588   C  -0.410956996839  0.359122098536  0.294187156894
 C589   C  0.410956996839  0.270079095374  -0.294855846267
 C590   C  0.064934941642  -0.294187156894  -0.205144153733
 C591   C  0.435065058358  0.229920904625  -0.359122098536
 C592   C  0.089043003161  -0.205812843106  -0.140877901464
 C593   C  0.270079095374  -0.294855846267  0.410956996839
 C594   C  -0.294855846267  0.410956996839  0.270079095374
 C595   C  -0.205812843106  -0.140877901464  0.089043003161
 C596   C  -0.205144153733  0.064934941642  -0.294187156894
 C597   C  -0.294187156894  -0.205144153733  0.064934941642
 C598   C  -0.359122098536  0.435065058358  0.229920904625
 C599   C  0.229920904625  -0.359122098536  0.435065058358
 C600   C  -0.140877901464  0.089043003161  -0.205812843106
 C601   C  -0.155456167693  -0.051473719689  0.265747234587
 C602   C  0.182779045725  -0.421203402279  0.234252765414
 C603   C  -0.344543832307  -0.078796597721  0.103982448004
 C604   C  0.317220954275  -0.448526280311  0.396017551996
 C605   C  0.265747234587  -0.155456167693  -0.051473719689
 C606   C  -0.051473719689  0.265747234587  -0.155456167693
 C607   C  0.396017551996  0.317220954275  -0.448526280311
 C608   C  -0.421203402279  0.234252765414  0.182779045725
 C609   C  0.234252765414  0.182779045725  -0.421203402279
 C610   C  -0.078796597721  0.103982448004  -0.344543832307
 C611   C  0.103982448004  -0.344543832307  -0.078796597721
 C612   C  -0.448526280311  0.396017551996  0.317220954275
 C613   C  0.448526280311  0.344543832307  -0.234252765414
 C614   C  0.078796597721  -0.317220954275  -0.265747234587
 C615   C  0.421203402279  0.155456167693  -0.396017551996
 C616   C  0.051473719689  -0.182779045725  -0.103982448004
 C617   C  0.344543832307  -0.234252765414  0.448526280311
 C618   C  -0.234252765414  0.448526280311  0.344543832307
 C619   C  -0.182779045725  -0.103982448004  0.051473719689
 C620   C  -0.265747234587  0.078796597721  -0.317220954275
 C621   C  -0.317220954275  -0.265747234587  0.078796597721
 C622   C  -0.396017551996  0.421203402279  0.155456167693
 C623   C  0.155456167693  -0.396017551996  0.421203402279
 C624   C  -0.103982448004  0.051473719689  -0.182779045725
 C625   C  -0.216149383572  -0.098884794389  0.174203239843
 C626   C  0.226911965768  -0.390352623415  0.325796760157
 C627   C  -0.283850616428  -0.109647376585  0.117264589183
 C628   C  0.273088034232  -0.401115205611  0.382735410817
 C629   C  0.174203239843  -0.216149383572  -0.098884794389
 C630   C  -0.098884794389  0.174203239843  -0.216149383572
 C631   C  0.382735410817  0.273088034232  -0.401115205611
 C632   C  -0.390352623415  0.325796760157  0.226911965768
 C633   C  0.325796760157  0.226911965768  -0.390352623415
 C634   C  -0.109647376585  0.117264589183  -0.283850616428
 C635   C  0.117264589183  -0.283850616428  -0.109647376585
 C636   C  -0.401115205611  0.382735410817  0.273088034232
 C637   C  0.401115205611  0.283850616428  -0.325796760157
 C638   C  0.109647376585  -0.273088034232  -0.174203239843
 C639   C  0.390352623415  0.216149383572  -0.382735410817
 C640   C  0.098884794389  -0.226911965768  -0.117264589183
 C641   C  0.283850616428  -0.325796760157  0.401115205611
 C642   C  -0.325796760157  0.401115205611  0.283850616428
 C643   C  -0.226911965768  -0.117264589183  0.098884794389
 C644   C  -0.174203239843  0.109647376585  -0.273088034232
 C645   C  -0.273088034232  -0.174203239843  0.109647376585
 C646   C  -0.382735410817  0.390352623415  0.216149383572
 C647   C  0.216149383572  -0.382735410817  0.390352623415
 C648   C  -0.117264589183  0.098884794389  -0.226911965768
 C649   C  -0.171602123312  -0.084921011101  0.190030864331
 C650   C  0.225048124567  -0.361632987643  0.309969135669
 C651   C  -0.328397876688  -0.138367012357  0.086681112210
 C652   C  0.274951875433  -0.415078988899  0.413318887789
 C653   C  0.190030864331  -0.171602123312  -0.084921011101
 C654   C  -0.084921011101  0.190030864331  -0.171602123312
 C655   C  0.413318887789  0.274951875433  -0.415078988899
 C656   C  -0.361632987643  0.309969135669  0.225048124567
 C657   C  0.309969135669  0.225048124567  -0.361632987643
 C658   C  -0.138367012357  0.086681112210  -0.328397876688
 C659   C  0.086681112210  -0.328397876688  -0.138367012357
 C660   C  -0.415078988899  0.413318887789  0.274951875433
 C661   C  0.415078988899  0.328397876688  -0.309969135669
 C662   C  0.138367012357  -0.274951875433  -0.190030864331
 C663   C  0.361632987643  0.171602123312  -0.413318887789
 C664   C  0.084921011101  -0.225048124567  -0.086681112210
 C665   C  0.328397876688  -0.309969135669  0.415078988899
 C666   C  -0.309969135669  0.415078988899  0.328397876688
 C667   C  -0.225048124567  -0.086681112210  0.084921011101
 C668   C  -0.190030864331  0.138367012357  -0.274951875433
 C669   C  -0.274951875433  -0.190030864331  0.138367012357
 C670   C  -0.413318887789  0.361632987643  0.171602123312
 C671   C  0.171602123312  -0.413318887789  0.361632987643
 C672   C  -0.086681112210  0.084921011101  -0.225048124567
 C673   C  -0.062657922674  0.020175323730  0.406107531674
 C674   C  0.114067792055  -0.468765454348  0.093892468326
 C675   C  -0.437342077326  -0.031234545652  0.082833246404
 C676   C  0.385932207945  0.479824676270  0.417166753596
 C677   C  0.406107531674  -0.062657922674  0.020175323730
 C678   C  0.020175323730  0.406107531674  -0.062657922674
 C679   C  0.417166753596  0.385932207945  0.479824676270
 C680   C  -0.468765454348  0.093892468326  0.114067792055
 C681   C  0.093892468326  0.114067792055  -0.468765454348
 C682   C  -0.031234545652  0.082833246404  -0.437342077326
 C683   C  0.082833246404  -0.437342077326  -0.031234545652
 C684   C  0.479824676270  0.417166753596  0.385932207945
 C685   C  -0.479824676270  0.437342077326  -0.093892468326
 C686   C  0.031234545652  -0.385932207945  -0.406107531674
 C687   C  0.468765454348  0.062657922674  -0.417166753596
 C688   C  -0.020175323730  -0.114067792055  -0.082833246404
 C689   C  0.437342077326  -0.093892468326  -0.479824676270
 C690   C  -0.093892468326  -0.479824676270  0.437342077326
 C691   C  -0.114067792055  -0.082833246404  -0.020175323730
 C692   C  -0.406107531674  0.031234545652  -0.385932207945
 C693   C  -0.385932207945  -0.406107531674  0.031234545652
 C694   C  -0.417166753596  0.468765454348  0.062657922674
 C695   C  0.062657922674  -0.417166753596  0.468765454348
 C696   C  -0.082833246404  -0.020175323730  -0.114067792055
 C697   C  -0.081397168908  0.009048083462  0.331299111790
 C698   C  0.177748971672  -0.412696280699  0.168700888209
 C699   C  -0.418602831092  -0.087303719301  0.090445252370
 C700   C  0.322251028328  0.490951916538  0.409554747630
 C701   C  0.331299111790  -0.081397168908  0.009048083462
 C702   C  0.009048083462  0.331299111790  -0.081397168908
 C703   C  0.409554747630  0.322251028328  0.490951916538
 C704   C  -0.412696280699  0.168700888209  0.177748971672
 C705   C  0.168700888209  0.177748971672  -0.412696280699
 C706   C  -0.087303719301  0.090445252370  -0.418602831092
 C707   C  0.090445252370  -0.418602831092  -0.087303719301
 C708   C  0.490951916538  0.409554747630  0.322251028328
 C709   C  -0.490951916538  0.418602831092  -0.168700888209
 C710   C  0.087303719301  -0.322251028328  -0.331299111790
 C711   C  0.412696280699  0.081397168908  -0.409554747630
 C712   C  -0.009048083462  -0.177748971672  -0.090445252370
 C713   C  0.418602831092  -0.168700888209  -0.490951916538
 C714   C  -0.168700888209  -0.490951916538  0.418602831092
 C715   C  -0.177748971672  -0.090445252370  -0.009048083462
 C716   C  -0.331299111790  0.087303719301  -0.322251028328
 C717   C  -0.322251028328  -0.331299111790  0.087303719301
 C718   C  -0.409554747630  0.412696280699  0.081397168908
 C719   C  0.081397168908  -0.409554747630  0.412696280699
 C720   C  -0.090445252370  -0.009048083462  -0.177748971672
 C721   C  -0.200278708424  -0.065798128702  0.249864428224
 C722   C  0.184337443074  -0.450143136649  0.250135571776
 C723   C  -0.299721291576  -0.049856863351  0.134480579722
 C724   C  0.315662556926  -0.434201871298  0.365519420278
 C725   C  0.249864428224  -0.200278708424  -0.065798128702
 C726   C  -0.065798128702  0.249864428224  -0.200278708424
 C727   C  0.365519420278  0.315662556926  -0.434201871298
 C728   C  -0.450143136649  0.250135571776  0.184337443074
 C729   C  0.250135571776  0.184337443074  -0.450143136649
 C730   C  -0.049856863351  0.134480579722  -0.299721291576
 C731   C  0.134480579722  -0.299721291576  -0.049856863351
 C732   C  -0.434201871298  0.365519420278  0.315662556926
 C733   C  0.434201871298  0.299721291576  -0.250135571776
 C734   C  0.049856863351  -0.315662556926  -0.249864428224
 C735   C  0.450143136649  0.200278708424  -0.365519420278
 C736   C  0.065798128702  -0.184337443074  -0.134480579722
 C737   C  0.299721291576  -0.250135571776  0.434201871298
 C738   C  -0.250135571776  0.434201871298  0.299721291576
 C739   C  -0.184337443074  -0.134480579722  0.065798128702
 C740   C  -0.249864428224  0.049856863351  -0.315662556926
 C741   C  -0.315662556926  -0.249864428224  0.049856863351
 C742   C  -0.365519420278  0.450143136649  0.200278708424
 C743   C  0.200278708424  -0.365519420278  0.450143136649
 C744   C  -0.134480579722  0.065798128702  -0.184337443074
 C745   C  -0.124064062730  -0.026230537890  0.313183502037
 C746   C  0.160585960072  -0.437247564768  0.186816497963
 C747   C  -0.375935937270  -0.062752435232  0.097833524840
 C748   C  0.339414039928  -0.473769462110  0.402166475160
 C749   C  0.313183502037  -0.124064062730  -0.026230537890
 C750   C  -0.026230537890  0.313183502037  -0.124064062730
 C751   C  0.402166475160  0.339414039928  -0.473769462110
 C752   C  -0.437247564768  0.186816497963  0.160585960072
 C753   C  0.186816497963  0.160585960072  -0.437247564768
 C754   C  -0.062752435232  0.097833524840  -0.375935937270
 C755   C  0.097833524840  -0.375935937270  -0.062752435232
 C756   C  -0.473769462110  0.402166475160  0.339414039928
 C757   C  0.473769462110  0.375935937270  -0.186816497963
 C758   C  0.062752435232  -0.339414039928  -0.313183502037
 C759   C  0.437247564768  0.124064062730  -0.402166475160
 C760   C  0.026230537890  -0.160585960072  -0.097833524840
 C761   C  0.375935937270  -0.186816497963  0.473769462110
 C762   C  -0.186816497963  0.473769462110  0.375935937270
 C763   C  -0.160585960072  -0.097833524840  0.026230537890
 C764   C  -0.313183502037  0.062752435232  -0.339414039928
 C765   C  -0.339414039928  -0.313183502037  0.062752435232
 C766   C  -0.402166475160  0.437247564768  0.124064062730
 C767   C  0.124064062730  -0.402166475160  0.437247564768
 C768   C  -0.097833524840  0.026230537890  -0.160585960072
 C769   C  -0.141895556924  -0.062058190995  0.234844505754
 C770   C  0.203097303251  -0.376740062679  0.265155494246
 C771   C  -0.358104443076  -0.123259937321  0.079837365930
 C772   C  0.296902696749  -0.437941809005  0.420162634070
 C773   C  0.234844505754  -0.141895556924  -0.062058190995
 C774   C  -0.062058190995  0.234844505754  -0.141895556924
 C775   C  0.420162634070  0.296902696749  -0.437941809005
 C776   C  -0.376740062679  0.265155494246  0.203097303251
 C777   C  0.265155494246  0.203097303251  -0.376740062679
 C778   C  -0.123259937321  0.079837365930  -0.358104443076
 C779   C  0.079837365930  -0.358104443076  -0.123259937321
 C780   C  -0.437941809005  0.420162634070  0.296902696749
 C781   C  0.437941809005  0.358104443076  -0.265155494246
 C782   C  0.123259937321  -0.296902696749  -0.234844505754
 C783   C  0.376740062679  0.141895556924  -0.420162634070
 C784   C  0.062058190995  -0.203097303251  -0.079837365930
 C785   C  0.358104443076  -0.265155494246  0.437941809005
 C786   C  -0.265155494246  0.437941809005  0.358104443076
 C787   C  -0.203097303251  -0.079837365930  0.062058190995
 C788   C  -0.234844505754  0.123259937321  -0.296902696749
 C789   C  -0.296902696749  -0.234844505754  0.123259937321
 C790   C  -0.420162634070  0.376740062679  0.141895556924
 C791   C  0.141895556924  -0.420162634070  0.376740062679
 C792   C  -0.079837365930  0.062058190995  -0.203097303251
 C793   C  -0.105477740044  -0.012989126685  0.387446543630
 C794   C  0.099564329685  -0.492924283674  0.112553456370
 C795   C  -0.394522259956  -0.007075716326  0.092488613359
 C796   C  0.400435670315  -0.487010873315  0.407511386641
 C797   C  0.387446543630  -0.105477740044  -0.012989126685
 C798   C  -0.012989126685  0.387446543630  -0.105477740044
 C799   C  0.407511386641  0.400435670315  -0.487010873315
 C800   C  -0.492924283674  0.112553456370  0.099564329685
 C801   C  0.112553456370  0.099564329685  -0.492924283674
 C802   C  -0.007075716326  0.092488613359  -0.394522259956
 C803   C  0.092488613359  -0.394522259956  -0.007075716326
 C804   C  -0.487010873315  0.407511386641  0.400435670315
 C805   C  0.487010873315  0.394522259956  -0.112553456370
 C806   C  0.007075716326  -0.400435670315  -0.387446543630
 C807   C  0.492924283674  0.105477740044  -0.407511386641
 C808   C  0.012989126685  -0.099564329685  -0.092488613359
 C809   C  0.394522259956  -0.112553456370  0.487010873315
 C810   C  -0.112553456370  0.487010873315  0.394522259956
 C811   C  -0.099564329685  -0.092488613359  0.012989126685
 C812   C  -0.387446543630  0.007075716326  -0.400435670315
 C813   C  -0.400435670315  -0.387446543630  0.007075716326
 C814   C  -0.407511386641  0.492924283674  0.105477740044
 C815   C  0.105477740044  -0.407511386641  0.492924283674
 C816   C  -0.092488613359  0.012989126685  -0.099564329685
 C817   C  -0.050758751846  0.031587620829  0.377491853972
 C818   C  0.154095766858  -0.428250605817  0.122508146028
 C819   C  -0.449241248154  -0.071749394183  0.082346372675
 C820   C  0.345904233142  0.468412379171  0.417653627325
 C821   C  0.377491853972  -0.050758751846  0.031587620829
 C822   C  0.031587620829  0.377491853972  -0.050758751846
 C823   C  0.417653627325  0.345904233142  0.468412379171
 C824   C  -0.428250605817  0.122508146028  0.154095766858
 C825   C  0.122508146028  0.154095766858  -0.428250605817
 C826   C  -0.071749394183  0.082346372675  -0.449241248154
 C827   C  0.082346372675  -0.449241248154  -0.071749394183
 C828   C  0.468412379171  0.417653627325  0.345904233142
 C829   C  -0.468412379171  0.449241248154  -0.122508146028
 C830   C  0.071749394183  -0.345904233142  -0.377491853972
 C831   C  0.428250605817  0.050758751846  -0.417653627325
 C832   C  -0.031587620829  -0.154095766858  -0.082346372675
 C833   C  0.449241248154  -0.122508146028  -0.468412379171
 C834   C  -0.122508146028  -0.468412379171  0.449241248154
 C835   C  -0.154095766858  -0.082346372675  -0.031587620829
 C836   C  -0.377491853972  0.071749394183  -0.345904233142
 C837   C  -0.345904233142  -0.377491853972  0.071749394183
 C838   C  -0.417653627325  0.428250605817  0.050758751846
 C839   C  0.050758751846  -0.417653627325  0.428250605817
 C840   C  -0.082346372675  -0.031587620829  -0.154095766858
 B841   B  -0.029884335223  0.043385024763  0.455274606597
 B842   B  0.088110418166  -0.485158941819  0.044725393403
 B843   B  -0.470115664777  -0.014841058181  0.073269359986
 B844   B  0.411889581834  0.456614975237  0.426730640014
 B845   B  0.455274606597  -0.029884335223  0.043385024763
 B846   B  0.043385024763  0.455274606597  -0.029884335223
 B847   B  0.426730640014  0.411889581834  0.456614975237
 B848   B  -0.485158941819  0.044725393403  0.088110418166
 B849   B  0.044725393403  0.088110418166  -0.485158941819
 B850   B  -0.014841058181  0.073269359986  -0.470115664777
 B851   B  0.073269359986  -0.470115664777  -0.014841058181
 B852   B  0.456614975237  0.426730640014  0.411889581834
 B853   B  -0.456614975237  0.470115664777  -0.044725393403
 B854   B  0.014841058181  -0.411889581834  -0.455274606597
 B855   B  0.485158941819  0.029884335223  -0.426730640014
 B856   B  -0.043385024763  -0.088110418166  -0.073269359986
 B857   B  0.470115664777  -0.044725393403  -0.456614975237
 B858   B  -0.044725393403  -0.456614975237  0.470115664777
 B859   B  -0.088110418166  -0.073269359986  -0.043385024763
 B860   B  -0.455274606597  0.014841058181  -0.411889581834
 B861   B  -0.411889581834  -0.455274606597  0.014841058181
 B862   B  -0.426730640014  0.485158941819  0.029884335223
 B863   B  0.029884335223  -0.426730640014  0.485158941819
 B864   B  -0.073269359986  -0.043385024763  -0.088110418166
 C865   C  -0.135221647570  -0.035914277402  0.342198902218
 C866   C  0.121886820379  -0.477420549788  0.157801097782
 C867   C  -0.364778352430  -0.022579450212  0.099307370168
 C868   C  0.378113179621  -0.464085722598  0.400692629832
 C869   C  0.342198902218  -0.135221647570  -0.035914277402
 C870   C  -0.035914277402  0.342198902218  -0.135221647570
 C871   C  0.400692629832  0.378113179621  -0.464085722598
 C872   C  -0.477420549788  0.157801097782  0.121886820379
 C873   C  0.157801097782  0.121886820379  -0.477420549788
 C874   C  -0.022579450212  0.099307370168  -0.364778352430
 C875   C  0.099307370168  -0.364778352430  -0.022579450212
 C876   C  -0.464085722598  0.400692629832  0.378113179621
 C877   C  0.464085722598  0.364778352430  -0.157801097782
 C878   C  0.022579450212  -0.378113179621  -0.342198902218
 C879   C  0.477420549788  0.135221647570  -0.400692629832
 C880   C  0.035914277402  -0.121886820379  -0.099307370168
 C881   C  0.364778352430  -0.157801097782  0.464085722598
 C882   C  -0.157801097782  0.464085722598  0.364778352430
 C883   C  -0.121886820379  -0.099307370168  0.035914277402
 C884   C  -0.342198902218  0.022579450212  -0.378113179621
 C885   C  -0.378113179621  -0.342198902218  0.022579450212
 C886   C  -0.400692629832  0.477420549788  0.135221647570
 C887   C  0.135221647570  -0.400692629832  0.477420549788
 C888   C  -0.099307370168  0.035914277402  -0.121886820379
 C889   C  -0.375000000000  0.375000000000  0.250000000000
 C890   C  -0.125000000000  0.125000000000  -0.250000000000
 C891   C  0.250000000000  -0.375000000000  0.375000000000
 C892   C  0.375000000000  0.250000000000  -0.375000000000
 C893   C  -0.250000000000  -0.125000000000  0.125000000000
 C894   C  0.125000000000  -0.250000000000  -0.125000000000
