data_MSUCOF-4-MnCp_BULK_OPTGEOM_DZ_optimized

_cell_length_a    37.263674
_cell_length_b    37.263674
_cell_length_c    37.263674
_cell_angle_alpha 109.471221
_cell_angle_beta  109.471221
_cell_angle_gamma 109.471221

_symmetry_space_group_name_H-M  'P 1'
_symmetry_Int_Tables_number     1

loop_
_symmetry_equiv_pos_as_xyz
  'x, y, z'

loop_
_atom_site_label
_atom_site_type_symbol
_atom_site_fract_x
_atom_site_fract_y
_atom_site_fract_z
H1       H      0.048538     0.017527     0.332175
H2       H      0.185352    -0.283637     0.167825
H3       H      0.451462    -0.216363    -0.031012
H4       H      0.314648     0.482473    -0.468988
H5       H      0.332175     0.048538     0.017527
H6       H      0.017527     0.332175     0.048538
H7       H     -0.468988     0.314648     0.482473
H8       H     -0.283637     0.167825     0.185352
H9       H      0.167825     0.185352    -0.283637
H10      H     -0.216363    -0.031012     0.451462
H11      H     -0.031012     0.451462    -0.216363
H12      H      0.482473    -0.468988     0.314648
H13      H     -0.482473    -0.451462    -0.167825
H14      H      0.216363    -0.314648    -0.332175
H15      H      0.283637    -0.048538     0.468988
H16      H     -0.017527    -0.185352     0.031012
H17      H     -0.451462    -0.167825    -0.482473
H18      H     -0.167825    -0.482473    -0.451462
H19      H     -0.185352     0.031012    -0.017527
H20      H     -0.332175     0.216363    -0.314648
H21      H     -0.314648    -0.332175     0.216363
H22      H      0.468988     0.283637    -0.048538
H23      H     -0.048538     0.468988     0.283637
H24      H      0.031012    -0.017527    -0.185352
H25      H     -0.077807    -0.090561     0.289940
H26      H      0.119499    -0.367747     0.210060
H27      H     -0.422193    -0.132253    -0.012754
H28      H      0.380501    -0.409439    -0.487246
H29      H      0.289940    -0.077807    -0.090561
H30      H     -0.090561     0.289940    -0.077807
H31      H     -0.487246     0.380501    -0.409439
H32      H     -0.367747     0.210060     0.119499
H33      H      0.210060     0.119499    -0.367747
H34      H     -0.132253    -0.012754    -0.422193
H35      H     -0.012754    -0.422193    -0.132253
H36      H     -0.409439    -0.487246     0.380501
H37      H      0.409439     0.422193    -0.210060
H38      H      0.132253    -0.380501    -0.289940
H39      H      0.367747     0.077807     0.487246
H40      H      0.090561    -0.119499     0.012754
H41      H      0.422193    -0.210060     0.409439
H42      H     -0.210060     0.409439     0.422193
H43      H     -0.119499     0.012754     0.090561
H44      H     -0.289940     0.132253    -0.380501
H45      H     -0.380501    -0.289940     0.132253
H46      H      0.487246     0.367747     0.077807
H47      H      0.077807     0.487246     0.367747
H48      H      0.012754     0.090561    -0.119499
H49      H     -0.030150    -0.050398     0.377666
H50      H      0.071936    -0.407816     0.122334
H51      H     -0.469850    -0.092184    -0.020248
H52      H      0.428064    -0.449602    -0.479752
H53      H      0.377666    -0.030150    -0.050398
H54      H     -0.050398     0.377666    -0.030150
H55      H     -0.479752     0.428064    -0.449602
H56      H     -0.407816     0.122334     0.071936
H57      H      0.122334     0.071936    -0.407816
H58      H     -0.092184    -0.020248    -0.469850
H59      H     -0.020248    -0.469850    -0.092184
H60      H     -0.449602    -0.479752     0.428064
H61      H      0.449602     0.469850    -0.122334
H62      H      0.092184    -0.428064    -0.377666
H63      H      0.407816     0.030150     0.479752
H64      H      0.050398    -0.071936     0.020248
H65      H      0.469850    -0.122334     0.449602
H66      H     -0.122334     0.449602     0.469850
H67      H     -0.071936     0.020248     0.050398
H68      H     -0.377666     0.092184    -0.428064
H69      H     -0.428064    -0.377666     0.092184
H70      H      0.479752     0.407816     0.030150
H71      H      0.030150     0.479752     0.407816
H72      H      0.020248     0.050398    -0.071936
H73      H     -0.029674    -0.048949     0.261421
H74      H      0.189630    -0.291095     0.238579
H75      H     -0.470326    -0.208905    -0.019275
H76      H      0.310370    -0.451051    -0.480725
H77      H      0.261421    -0.029674    -0.048949
H78      H     -0.048949     0.261421    -0.029674
H79      H     -0.480725     0.310370    -0.451051
H80      H     -0.291095     0.238579     0.189630
H81      H      0.238579     0.189630    -0.291095
H82      H     -0.208905    -0.019275    -0.470326
H83      H     -0.019275    -0.470326    -0.208905
H84      H     -0.451051    -0.480725     0.310370
H85      H      0.451051     0.470326    -0.238579
H86      H      0.208905    -0.310370    -0.261421
H87      H      0.291095     0.029674     0.480725
H88      H      0.048949    -0.189630     0.019275
H89      H      0.470326    -0.238579     0.451051
H90      H     -0.238579     0.451051     0.470326
H91      H     -0.189630     0.019275     0.048949
H92      H     -0.261421     0.208905    -0.310370
H93      H     -0.310370    -0.261421     0.208905
H94      H      0.480725     0.291095     0.029674
H95      H      0.029674     0.480725     0.291095
H96      H      0.019275     0.048949    -0.189630
C1       C      0.022015    -0.005570     0.332724
C2       C      0.161706    -0.310709     0.167276
C3       C      0.477985    -0.189291    -0.027585
C4       C      0.338294    -0.494430    -0.472415
C5       C      0.332724     0.022015    -0.005570
C6       C     -0.005570     0.332724     0.022015
C7       C     -0.472415     0.338294    -0.494430
C8       C     -0.310709     0.167276     0.161706
C9       C      0.167276     0.161706    -0.310709
C10      C     -0.189291    -0.027585     0.477985
C11      C     -0.027585     0.477985    -0.189291
C12      C     -0.494430    -0.472415     0.338294
C13      C      0.494430    -0.477985    -0.167276
C14      C      0.189291    -0.338294    -0.332724
C15      C      0.310709    -0.022015     0.472415
C16      C      0.005570    -0.161706     0.027585
C17      C     -0.477985    -0.167276     0.494430
C18      C     -0.167276     0.494430    -0.477985
C19      C     -0.161706     0.027585     0.005570
C20      C     -0.332724     0.189291    -0.338294
C21      C     -0.338294    -0.332724     0.189291
C22      C      0.472415     0.310709    -0.022015
C23      C     -0.022015     0.472415     0.310709
C24      C      0.027585     0.005570    -0.161706
C25      C      0.022351    -0.006758     0.370854
C26      C      0.122388    -0.348503     0.129146
C27      C      0.477649    -0.151497    -0.029109
C28      C      0.377612    -0.493242    -0.470891
C29      C      0.370854     0.022351    -0.006758
C30      C     -0.006758     0.370854     0.022351
C31      C     -0.470891     0.377612    -0.493242
C32      C     -0.348503     0.129146     0.122388
C33      C      0.129146     0.122388    -0.348503
C34      C     -0.151497    -0.029109     0.477649
C35      C     -0.029109     0.477649    -0.151497
C36      C     -0.493242    -0.470891     0.377612
C37      C      0.493242    -0.477649    -0.129146
C38      C      0.151497    -0.377612    -0.370854
C39      C      0.348503    -0.022351     0.470891
C40      C      0.006758    -0.122388     0.029109
C41      C     -0.477649    -0.129146     0.493242
C42      C     -0.129146     0.493242    -0.477649
C43      C     -0.122388     0.029109     0.006758
C44      C     -0.370854     0.151497    -0.377612
C45      C     -0.377612    -0.370854     0.151497
C46      C      0.470891     0.348503    -0.022351
C47      C     -0.022351     0.470891     0.348503
C48      C      0.029109     0.006758    -0.122388
C49      C     -0.019158    -0.041015     0.295289
C50      C      0.163696    -0.314447     0.204711
C51      C     -0.480842    -0.185553    -0.021857
C52      C      0.336304    -0.458985    -0.478143
C53      C      0.295289    -0.019158    -0.041015
C54      C     -0.041015     0.295289    -0.019158
C55      C     -0.478143     0.336304    -0.458985
C56      C     -0.314447     0.204711     0.163696
C57      C      0.204711     0.163696    -0.314447
C58      C     -0.185553    -0.021857    -0.480842
C59      C     -0.021857    -0.480842    -0.185553
C60      C     -0.458985    -0.478143     0.336304
C61      C      0.458985     0.480842    -0.204711
C62      C      0.185553    -0.336304    -0.295289
C63      C      0.314447     0.019158     0.478143
C64      C      0.041015    -0.163696     0.021857
C65      C      0.480842    -0.204711     0.458985
C66      C     -0.204711     0.458985     0.480842
C67      C     -0.163696     0.021857     0.041015
C68      C     -0.295289     0.185553    -0.336304
C69      C     -0.336304    -0.295289     0.185553
C70      C      0.478143     0.314447     0.019158
C71      C      0.019158     0.478143     0.314447
C72      C      0.021857     0.041015    -0.163696
Mn1      Mn    -0.026859     0.004157     0.340495
Mn2      Mn     0.163662    -0.367354     0.159505
Mn3      Mn    -0.473141    -0.132646     0.031016
Mn4      Mn     0.336338     0.495843     0.468984
Mn5      Mn     0.340495    -0.026859     0.004157
Mn6      Mn     0.004157     0.340495    -0.026859
Mn7      Mn     0.468984     0.336338     0.495843
Mn8      Mn    -0.367354     0.159505     0.163662
Mn9      Mn     0.159505     0.163662    -0.367354
Mn10     Mn    -0.132646     0.031016    -0.473141
Mn11     Mn     0.031016    -0.473141    -0.132646
Mn12     Mn     0.495843     0.468984     0.336338
Mn13     Mn    -0.495843     0.473141    -0.159505
Mn14     Mn     0.132646    -0.336338    -0.340495
Mn15     Mn     0.367354     0.026859    -0.468984
Mn16     Mn    -0.004157    -0.163662    -0.031016
Mn17     Mn     0.473141    -0.159505    -0.495843
Mn18     Mn    -0.159505    -0.495843     0.473141
Mn19     Mn    -0.163662    -0.031016    -0.004157
Mn20     Mn    -0.340495     0.132646    -0.336338
Mn21     Mn    -0.336338    -0.340495     0.132646
Mn22     Mn    -0.468984     0.367354     0.026859
Mn23     Mn     0.026859    -0.468984     0.367354
Mn24     Mn    -0.031016    -0.004157    -0.163662
H97      H      0.018151     0.086734     0.417602
H98      H      0.169133    -0.399451     0.082398
H99      H      0.481849    -0.100549     0.068583
H100     H      0.330867     0.413266     0.431417
H101     H      0.417602     0.018151     0.086734
H102     H      0.086734     0.417602     0.018151
H103     H      0.431417     0.330867     0.413266
H104     H     -0.399451     0.082398     0.169133
H105     H      0.082398     0.169133    -0.399451
H106     H     -0.100549     0.068583     0.481849
H107     H      0.068583     0.481849    -0.100549
H108     H      0.413266     0.431417     0.330867
H109     H     -0.413266    -0.481849    -0.082398
H110     H      0.100549    -0.330867    -0.417602
H111     H      0.399451    -0.018151    -0.431417
H112     H     -0.086734    -0.169133    -0.068583
H113     H     -0.481849    -0.082398    -0.413266
H114     H     -0.082398    -0.413266    -0.481849
H115     H     -0.169133    -0.068583    -0.086734
H116     H     -0.417602     0.100549    -0.330867
H117     H     -0.330867    -0.417602     0.100549
H118     H     -0.431417     0.399451    -0.018151
H119     H     -0.018151    -0.431417     0.399451
H120     H     -0.068583    -0.086734    -0.169133
C73      C     -0.044064    -0.063593     0.310123
C74      C      0.126284    -0.354187     0.189877
C75      C     -0.455936    -0.145813    -0.019529
C76      C      0.373716    -0.436407    -0.480471
C77      C      0.310123    -0.044064    -0.063593
C78      C     -0.063593     0.310123    -0.044064
C79      C     -0.480471     0.373716    -0.436407
C80      C     -0.354187     0.189877     0.126284
C81      C      0.189877     0.126284    -0.354187
C82      C     -0.145813    -0.019529    -0.455936
C83      C     -0.019529    -0.455936    -0.145813
C84      C     -0.436407    -0.480471     0.373716
C85      C      0.436407     0.455936    -0.189877
C86      C      0.145813    -0.373716    -0.310123
C87      C      0.354187     0.044064     0.480471
C88      C      0.063593    -0.126284     0.019529
C89      C      0.455936    -0.189877     0.436407
C90      C     -0.189877     0.436407     0.455936
C91      C     -0.126284     0.019529     0.063593
C92      C     -0.310123     0.145813    -0.373716
C93      C     -0.373716    -0.310123     0.145813
C94      C      0.480471     0.354187     0.044064
C95      C      0.044064     0.480471     0.354187
C96      C      0.019529     0.063593    -0.126284
H121     H      0.005477     0.084925     0.340902
H122     H      0.244024    -0.335424     0.159098
H123     H      0.494523    -0.164576     0.079448
H124     H      0.255976     0.415075     0.420552
H125     H      0.340902     0.005477     0.084925
H126     H      0.084925     0.340902     0.005477
H127     H      0.420552     0.255976     0.415075
H128     H     -0.335424     0.159098     0.244024
H129     H      0.159098     0.244024    -0.335424
H130     H     -0.164576     0.079448     0.494523
H131     H      0.079448     0.494523    -0.164576
H132     H      0.415075     0.420552     0.255976
H133     H     -0.415075    -0.494523    -0.159098
H134     H      0.164576    -0.255976    -0.340902
H135     H      0.335424    -0.005477    -0.420552
H136     H     -0.084925    -0.244024    -0.079448
H137     H     -0.494523    -0.159098    -0.415075
H138     H     -0.159098    -0.415075    -0.494523
H139     H     -0.244024    -0.079448    -0.084925
H140     H     -0.340902     0.164576    -0.255976
H141     H     -0.255976    -0.340902     0.164576
H142     H     -0.420552     0.335424    -0.005477
H143     H     -0.005477    -0.420552     0.335424
H144     H     -0.079448    -0.084925    -0.244024
C97      C     -0.062255     0.029909     0.311868
C98      C      0.218042    -0.374122     0.188132
C99      C     -0.437745    -0.125878     0.092164
C100     C      0.281958     0.470091     0.407836
C101     C      0.311868    -0.062255     0.029909
C102     C      0.029909     0.311868    -0.062255
C103     C      0.407836     0.281958     0.470091
C104     C     -0.374122     0.188132     0.218042
C105     C      0.188132     0.218042    -0.374122
C106     C     -0.125878     0.092164    -0.437745
C107     C      0.092164    -0.437745    -0.125878
C108     C      0.470091     0.407836     0.281958
C109     C     -0.470091     0.437745    -0.188132
C110     C      0.125878    -0.281958    -0.311868
C111     C      0.374122     0.062255    -0.407836
C112     C     -0.029909    -0.218042    -0.092164
C113     C      0.437745    -0.188132    -0.470091
C114     C     -0.188132    -0.470091     0.437745
C115     C     -0.218042    -0.092164    -0.029909
C116     C     -0.311868     0.125878    -0.281958
C117     C     -0.281958    -0.311868     0.125878
C118     C     -0.407836     0.374122     0.062255
C119     C      0.062255    -0.407836     0.374122
C120     C     -0.092164    -0.029909    -0.218042
C121     C     -0.011826     0.065077     0.385969
C122     C      0.179108    -0.397794     0.114031
C123     C     -0.488174    -0.102206     0.076903
C124     C      0.320892     0.434923     0.423097
C125     C      0.385969    -0.011826     0.065077
C126     C      0.065077     0.385969    -0.011826
C127     C      0.423097     0.320892     0.434923
C128     C     -0.397794     0.114031     0.179108
C129     C      0.114031     0.179108    -0.397794
C130     C     -0.102206     0.076903    -0.488174
C131     C      0.076903    -0.488174    -0.102206
C132     C      0.434923     0.423097     0.320892
C133     C     -0.434923     0.488174    -0.114031
C134     C      0.102206    -0.320892    -0.385969
C135     C      0.397794     0.011826    -0.423097
C136     C     -0.065077    -0.179108    -0.076903
C137     C      0.488174    -0.114031    -0.434923
C138     C     -0.114031    -0.434923     0.488174
C139     C     -0.179108    -0.076903    -0.065077
C140     C     -0.385969     0.102206    -0.320892
C141     C     -0.320892    -0.385969     0.102206
C142     C     -0.423097     0.397794     0.011826
C143     C      0.011826    -0.423097     0.397794
C144     C     -0.076903    -0.065077    -0.179108
C145     C     -0.018660     0.063831     0.345492
C146     C      0.218339    -0.364152     0.154508
C147     C     -0.481340    -0.135848     0.082491
C148     C      0.281661     0.436169     0.417509
C149     C      0.345492    -0.018660     0.063831
C150     C      0.063831     0.345492    -0.018660
C151     C      0.417509     0.281661     0.436169
C152     C     -0.364152     0.154508     0.218339
C153     C      0.154508     0.218339    -0.364152
C154     C     -0.135848     0.082491    -0.481340
C155     C      0.082491    -0.481340    -0.135848
C156     C      0.436169     0.417509     0.281661
C157     C     -0.436169     0.481340    -0.154508
C158     C      0.135848    -0.281661    -0.345492
C159     C      0.364152     0.018660    -0.417509
C160     C     -0.063831    -0.218339    -0.082491
C161     C      0.481340    -0.154508    -0.436169
C162     C     -0.154508    -0.436169     0.481340
C163     C     -0.218339    -0.082491    -0.063831
C164     C     -0.345492     0.135848    -0.281661
C165     C     -0.281661    -0.345492     0.135848
C166     C     -0.417509     0.364152     0.018660
C167     C      0.018660    -0.417509     0.364152
C168     C     -0.082491    -0.063831    -0.218339
H145     H     -0.077501     0.021249     0.277630
H146     H      0.243619    -0.355131     0.222370
H147     H     -0.422499    -0.144869     0.098750
H148     H      0.256381     0.478751     0.401250
H149     H      0.277630    -0.077501     0.021249
H150     H      0.021249     0.277630    -0.077501
H151     H      0.401250     0.256381     0.478751
H152     H     -0.355131     0.222370     0.243619
H153     H      0.222370     0.243619    -0.355131
H154     H     -0.144869     0.098750    -0.422499
H155     H      0.098750    -0.422499    -0.144869
H156     H      0.478751     0.401250     0.256381
H157     H     -0.478751     0.422499    -0.222370
H158     H      0.144869    -0.256381    -0.277630
H159     H      0.355131     0.077501    -0.401250
H160     H     -0.021249    -0.243619    -0.098750
H161     H      0.422499    -0.222370    -0.478751
H162     H     -0.222370    -0.478751     0.422499
H163     H     -0.243619    -0.098750    -0.021249
H164     H     -0.277630     0.144869    -0.256381
H165     H     -0.256381    -0.277630     0.144869
H166     H     -0.401250     0.355131     0.077501
H167     H      0.077501    -0.401250     0.355131
H168     H     -0.098750    -0.021249    -0.243619
H169     H      0.048850     0.015617     0.404609
H170     H      0.111009    -0.355759     0.095391
H171     H      0.451150    -0.144241    -0.033233
H172     H      0.388991     0.484383    -0.466767
H173     H      0.404609     0.048850     0.015617
H174     H      0.015617     0.404609     0.048850
H175     H     -0.466767     0.388991     0.484383
H176     H     -0.355759     0.095391     0.111009
H177     H      0.095391     0.111009    -0.355759
H178     H     -0.144241    -0.033233     0.451150
H179     H     -0.033233     0.451150    -0.144241
H180     H      0.484383    -0.466767     0.388991
H181     H     -0.484383    -0.451150    -0.095391
H182     H      0.144241    -0.388991    -0.404609
H183     H      0.355759    -0.048850     0.466767
H184     H     -0.015617    -0.111009     0.033233
H185     H     -0.451150    -0.095391    -0.484383
H186     H     -0.095391    -0.484383    -0.451150
H187     H     -0.111009     0.033233    -0.015617
H188     H     -0.404609     0.144241    -0.388991
H189     H     -0.388991    -0.404609     0.144241
H190     H      0.466767     0.355759    -0.048850
H191     H     -0.048850     0.466767     0.355759
H192     H      0.033233    -0.015617    -0.111009
O1       O      0.014232     0.060434     0.470148
O2       O      0.090286    -0.455916     0.029852
O3       O      0.485768    -0.044084     0.046201
O4       O      0.409714     0.439566     0.453799
O5       O      0.470148     0.014232     0.060434
O6       O      0.060434     0.470148     0.014232
O7       O      0.453799     0.409714     0.439566
O8       O     -0.455916     0.029852     0.090286
O9       O      0.029852     0.090286    -0.455916
O10      O     -0.044084     0.046201     0.485768
O11      O      0.046201     0.485768    -0.044084
O12      O      0.439566     0.453799     0.409714
O13      O     -0.439566    -0.485768    -0.029852
O14      O      0.044084    -0.409714    -0.470148
O15      O      0.455916    -0.014232    -0.453799
O16      O     -0.060434    -0.090286    -0.046201
O17      O     -0.485768    -0.029852    -0.439566
O18      O     -0.029852    -0.439566    -0.485768
O19      O     -0.090286    -0.046201    -0.060434
O20      O     -0.470148     0.044084    -0.409714
O21      O     -0.409714    -0.470148     0.044084
O22      O     -0.453799     0.455916    -0.014232
O23      O     -0.014232    -0.453799     0.455916
O24      O     -0.046201    -0.060434    -0.090286
H193     H     -0.159372    -0.090576     0.167972
H194     H      0.241452    -0.327344     0.332028
H195     H     -0.340628    -0.172656     0.068796
H196     H      0.258548    -0.409424     0.431204
H197     H      0.167972    -0.159372    -0.090576
H198     H     -0.090576     0.167972    -0.159372
H199     H      0.431204     0.258548    -0.409424
H200     H     -0.327344     0.332028     0.241452
H201     H      0.332028     0.241452    -0.327344
H202     H     -0.172656     0.068796    -0.340628
H203     H      0.068796    -0.340628    -0.172656
H204     H     -0.409424     0.431204     0.258548
H205     H      0.409424     0.340628    -0.332028
H206     H      0.172656    -0.258548    -0.167972
H207     H      0.327344     0.159372    -0.431204
H208     H      0.090576    -0.241452    -0.068796
H209     H      0.340628    -0.332028     0.409424
H210     H     -0.332028     0.409424     0.340628
H211     H     -0.241452    -0.068796     0.090576
H212     H     -0.167972     0.172656    -0.258548
H213     H     -0.258548    -0.167972     0.172656
H214     H     -0.431204     0.327344     0.159372
H215     H      0.159372    -0.431204     0.327344
H216     H     -0.068796     0.090576    -0.241452
H217     H     -0.167522    -0.065734     0.328774
H218     H      0.105492    -0.496296     0.171226
H219     H     -0.332478    -0.003704     0.101788
H220     H      0.394508    -0.434266     0.398212
H221     H      0.328774    -0.167522    -0.065734
H222     H     -0.065734     0.328774    -0.167522
H223     H      0.398212     0.394508    -0.434266
H224     H     -0.496296     0.171226     0.105492
H225     H      0.171226     0.105492    -0.496296
H226     H     -0.003704     0.101788    -0.332478
H227     H      0.101788    -0.332478    -0.003704
H228     H     -0.434266     0.398212     0.394508
H229     H      0.434266     0.332478    -0.171226
H230     H      0.003704    -0.394508    -0.328774
H231     H      0.496296     0.167522    -0.398212
H232     H      0.065734    -0.105492    -0.101788
H233     H      0.332478    -0.171226     0.434266
H234     H     -0.171226     0.434266     0.332478
H235     H     -0.105492    -0.101788     0.065734
H236     H     -0.328774     0.003704    -0.394508
H237     H     -0.394508    -0.328774     0.003704
H238     H     -0.398212     0.496296     0.167522
H239     H      0.167522    -0.398212     0.496296
H240     H     -0.101788     0.065734    -0.105492
C169     C     -0.018744    -0.042569     0.356534
C170     C      0.100897    -0.375278     0.143466
C171     C     -0.481256    -0.124722    -0.023825
C172     C      0.399103    -0.457431    -0.476175
C173     C      0.356534    -0.018744    -0.042569
C174     C     -0.042569     0.356534    -0.018744
C175     C     -0.476175     0.399103    -0.457431
C176     C     -0.375278     0.143466     0.100897
C177     C      0.143466     0.100897    -0.375278
C178     C     -0.124722    -0.023825    -0.481256
C179     C     -0.023825    -0.481256    -0.124722
C180     C     -0.457431    -0.476175     0.399103
C181     C      0.457431     0.481256    -0.143466
C182     C      0.124722    -0.399103    -0.356534
C183     C      0.375278     0.018744     0.476175
C184     C      0.042569    -0.100897     0.023825
C185     C      0.481256    -0.143466     0.457431
C186     C     -0.143466     0.457431     0.481256
C187     C     -0.100897     0.023825     0.042569
C188     C     -0.356534     0.124722    -0.399103
C189     C     -0.399103    -0.356534     0.124722
C190     C      0.476175     0.375278     0.018744
C191     C      0.018744     0.476175     0.375278
C192     C      0.023825     0.042569    -0.100897
H241     H     -0.265655    -0.100030     0.192744
H242     H      0.207227    -0.458399     0.307256
H243     H     -0.234345    -0.041601     0.165625
H244     H      0.292773    -0.399970     0.334375
H245     H      0.192744    -0.265655    -0.100030
H246     H     -0.100030     0.192744    -0.265655
H247     H      0.334375     0.292773    -0.399970
H248     H     -0.458399     0.307256     0.207227
H249     H      0.307256     0.207227    -0.458399
H250     H     -0.041601     0.165625    -0.234345
H251     H      0.165625    -0.234345    -0.041601
H252     H     -0.399970     0.334375     0.292773
H253     H      0.399970     0.234345    -0.307256
H254     H      0.041601    -0.292773    -0.192744
H255     H      0.458399     0.265655    -0.334375
H256     H      0.100030    -0.207227    -0.165625
H257     H      0.234345    -0.307256     0.399970
H258     H     -0.307256     0.399970     0.234345
H259     H     -0.207227    -0.165625     0.100030
H260     H     -0.192744     0.041601    -0.292773
H261     H     -0.292773    -0.192744     0.041601
H262     H     -0.334375     0.458399     0.265655
H263     H      0.265655    -0.334375     0.458399
H264     H     -0.165625     0.100030    -0.207227
H265     H     -0.213601    -0.058487     0.272700
H266     H      0.168813    -0.486301     0.227300
H267     H     -0.286399    -0.013699     0.155114
H268     H      0.331187    -0.441513     0.344886
H269     H      0.272700    -0.213601    -0.058487
H270     H     -0.058487     0.272700    -0.213601
H271     H      0.344886     0.331187    -0.441513
H272     H     -0.486301     0.227300     0.168813
H273     H      0.227300     0.168813    -0.486301
H274     H     -0.013699     0.155114    -0.286399
H275     H      0.155114    -0.286399    -0.013699
H276     H     -0.441513     0.344886     0.331187
H277     H      0.441513     0.286399    -0.227300
H278     H      0.013699    -0.331187    -0.272700
H279     H      0.486301     0.213601    -0.344886
H280     H      0.058487    -0.168813    -0.155114
H281     H      0.286399    -0.227300     0.441513
H282     H     -0.227300     0.441513     0.286399
H283     H     -0.168813    -0.155114     0.058487
H284     H     -0.272700     0.013699    -0.331187
H285     H     -0.331187    -0.272700     0.013699
H286     H     -0.344886     0.486301     0.213601
H287     H      0.213601    -0.344886     0.486301
H288     H     -0.155114     0.058487    -0.168813
H289     H     -0.115101    -0.024712     0.408772
H290     H      0.066516     0.476127     0.091228
H291     H     -0.384899     0.023873     0.090389
H292     H      0.433484    -0.475288     0.409611
H293     H      0.408772    -0.115101    -0.024712
H294     H     -0.024712     0.408772    -0.115101
H295     H      0.409611     0.433484    -0.475288
H296     H      0.476127     0.091228     0.066516
H297     H      0.091228     0.066516     0.476127
H298     H      0.023873     0.090389    -0.384899
H299     H      0.090389    -0.384899     0.023873
H300     H     -0.475288     0.409611     0.433484
H301     H      0.475288     0.384899    -0.091228
H302     H     -0.023873    -0.433484    -0.408772
H303     H     -0.476127     0.115101    -0.409611
H304     H      0.024712    -0.066516    -0.090389
H305     H      0.384899    -0.091228     0.475288
H306     H     -0.091228     0.475288     0.384899
H307     H     -0.066516    -0.090389     0.024712
H308     H     -0.408772    -0.023873    -0.433484
H309     H     -0.433484    -0.408772    -0.023873
H310     H     -0.409611    -0.476127     0.115101
H311     H      0.115101    -0.409611    -0.476127
H312     H     -0.090389     0.024712    -0.066516
H313     H     -0.107746    -0.051142     0.247984
H314     H      0.200874    -0.355729     0.252016
H315     H     -0.392254    -0.144271     0.056604
H316     H      0.299126    -0.448858     0.443396
H317     H      0.247984    -0.107746    -0.051142
H318     H     -0.051142     0.247984    -0.107746
H319     H      0.443396     0.299126    -0.448858
H320     H     -0.355729     0.252016     0.200874
H321     H      0.252016     0.200874    -0.355729
H322     H     -0.144271     0.056604    -0.392254
H323     H      0.056604    -0.392254    -0.144271
H324     H     -0.448858     0.443396     0.299126
H325     H      0.448858     0.392254    -0.252016
H326     H      0.144271    -0.299126    -0.247984
H327     H      0.355729     0.107746    -0.443396
H328     H      0.051142    -0.200874    -0.056604
H329     H      0.392254    -0.252016     0.448858
H330     H     -0.252016     0.448858     0.392254
H331     H     -0.200874    -0.056604     0.051142
H332     H     -0.247984     0.144271    -0.299126
H333     H     -0.299126    -0.247984     0.144271
H334     H     -0.443396     0.355729     0.107746
H335     H      0.107746    -0.443396     0.355729
H336     H     -0.056604     0.051142    -0.200874
C193     C     -0.231006    -0.089988     0.204804
C194     C      0.205208    -0.435810     0.295196
C195     C     -0.268994    -0.064190     0.141018
C196     C      0.294792    -0.410012     0.358982
C197     C      0.204804    -0.231006    -0.089988
C198     C     -0.089988     0.204804    -0.231006
C199     C      0.358982     0.294792    -0.410012
C200     C     -0.435810     0.295196     0.205208
C201     C      0.295196     0.205208    -0.435810
C202     C     -0.064190     0.141018    -0.268994
C203     C      0.141018    -0.268994    -0.064190
C204     C     -0.410012     0.358982     0.294792
C205     C      0.410012     0.268994    -0.295196
C206     C      0.064190    -0.294792    -0.204804
C207     C      0.435810     0.231006    -0.358982
C208     C      0.089988    -0.205208    -0.141018
C209     C      0.268994    -0.295196     0.410012
C210     C     -0.295196     0.410012     0.268994
C211     C     -0.205208    -0.141018     0.089988
C212     C     -0.204804     0.064190    -0.294792
C213     C     -0.294792    -0.204804     0.064190
C214     C     -0.358982     0.435810     0.231006
C215     C      0.231006    -0.358982     0.435810
C216     C     -0.141018     0.089988    -0.205208
C217     C     -0.156827    -0.051666     0.266020
C218     C      0.182314    -0.422847     0.233980
C219     C     -0.343173    -0.077153     0.105161
C220     C      0.317686    -0.448334     0.394839
C221     C      0.266020    -0.156827    -0.051666
C222     C     -0.051666     0.266020    -0.156827
C223     C      0.394839     0.317686    -0.448334
C224     C     -0.422847     0.233980     0.182314
C225     C      0.233980     0.182314    -0.422847
C226     C     -0.077153     0.105161    -0.343173
C227     C      0.105161    -0.343173    -0.077153
C228     C     -0.448334     0.394839     0.317686
C229     C      0.448334     0.343173    -0.233980
C230     C      0.077153    -0.317686    -0.266020
C231     C      0.422847     0.156827    -0.394839
C232     C      0.051666    -0.182314    -0.105161
C233     C      0.343173    -0.233980     0.448334
C234     C     -0.233980     0.448334     0.343173
C235     C     -0.182314    -0.105161     0.051666
C236     C     -0.266020     0.077153    -0.317686
C237     C     -0.317686    -0.266020     0.077153
C238     C     -0.394839     0.422847     0.156827
C239     C      0.156827    -0.394839     0.422847
C240     C     -0.105161     0.051666    -0.182314
C241     C     -0.216526    -0.099169     0.174349
C242     C      0.226482    -0.390875     0.325651
C243     C     -0.283474    -0.109125     0.117357
C244     C      0.273518    -0.400831     0.382643
C245     C      0.174349    -0.216526    -0.099169
C246     C     -0.099169     0.174349    -0.216526
C247     C      0.382643     0.273518    -0.400831
C248     C     -0.390875     0.325651     0.226482
C249     C      0.325651     0.226482    -0.390875
C250     C     -0.109125     0.117357    -0.283474
C251     C      0.117357    -0.283474    -0.109125
C252     C     -0.400831     0.382643     0.273518
C253     C      0.400831     0.283474    -0.325651
C254     C      0.109125    -0.273518    -0.174349
C255     C      0.390875     0.216526    -0.382643
C256     C      0.099169    -0.226482    -0.117357
C257     C      0.283474    -0.325651     0.400831
C258     C     -0.325651     0.400831     0.283474
C259     C     -0.226482    -0.117357     0.099169
C260     C     -0.174349     0.109125    -0.273518
C261     C     -0.273518    -0.174349     0.109125
C262     C     -0.382643     0.390875     0.216526
C263     C      0.216526    -0.382643     0.390875
C264     C     -0.117357     0.099169    -0.226482
C265     C     -0.171762    -0.084548     0.190709
C266     C      0.224742    -0.362471     0.309291
C267     C     -0.328238    -0.137529     0.087213
C268     C      0.275258    -0.415452     0.412787
C269     C      0.190709    -0.171762    -0.084548
C270     C     -0.084548     0.190709    -0.171762
C271     C      0.412787     0.275258    -0.415452
C272     C     -0.362471     0.309291     0.224742
C273     C      0.309291     0.224742    -0.362471
C274     C     -0.137529     0.087213    -0.328238
C275     C      0.087213    -0.328238    -0.137529
C276     C     -0.415452     0.412787     0.275258
C277     C      0.415452     0.328238    -0.309291
C278     C      0.137529    -0.275258    -0.190709
C279     C      0.362471     0.171762    -0.412787
C280     C      0.084548    -0.224742    -0.087213
C281     C      0.328238    -0.309291     0.415452
C282     C     -0.309291     0.415452     0.328238
C283     C     -0.224742    -0.087213     0.084548
C284     C     -0.190709     0.137529    -0.275258
C285     C     -0.275258    -0.190709     0.137529
C286     C     -0.412787     0.362471     0.171762
C287     C      0.171762    -0.412787     0.362471
C288     C     -0.087213     0.084548    -0.224742
C289     C     -0.063486     0.019613     0.406271
C290     C      0.113342    -0.469757     0.093729
C291     C     -0.436514    -0.030243     0.083099
C292     C      0.386658     0.480387     0.416901
C293     C      0.406271    -0.063486     0.019613
C294     C      0.019613     0.406271    -0.063486
C295     C      0.416901     0.386658     0.480387
C296     C     -0.469757     0.093729     0.113342
C297     C      0.093729     0.113342    -0.469757
C298     C     -0.030243     0.083099    -0.436514
C299     C      0.083099    -0.436514    -0.030243
C300     C      0.480387     0.416901     0.386658
C301     C     -0.480387     0.436514    -0.093729
C302     C      0.030243    -0.386658    -0.406271
C303     C      0.469757     0.063486    -0.416901
C304     C     -0.019613    -0.113342    -0.083099
C305     C      0.436514    -0.093729    -0.480387
C306     C     -0.093729    -0.480387     0.436514
C307     C     -0.113342    -0.083099    -0.019613
C308     C     -0.406271     0.030243    -0.386658
C309     C     -0.386658    -0.406271     0.030243
C310     C     -0.416901     0.469757     0.063486
C311     C      0.063486    -0.416901     0.469757
C312     C     -0.083099    -0.019613    -0.113342
C313     C     -0.083602     0.010941     0.331823
C314     C      0.179118    -0.415425     0.168177
C315     C     -0.416398    -0.084575     0.094544
C316     C      0.320882     0.489059     0.405456
C317     C      0.331823    -0.083602     0.010941
C318     C      0.010941     0.331823    -0.083602
C319     C      0.405456     0.320882     0.489059
C320     C     -0.415425     0.168177     0.179118
C321     C      0.168177     0.179118    -0.415425
C322     C     -0.084575     0.094544    -0.416398
C323     C      0.094544    -0.416398    -0.084575
C324     C      0.489059     0.405456     0.320882
C325     C     -0.489059     0.416398    -0.168177
C326     C      0.084575    -0.320882    -0.331823
C327     C      0.415425     0.083602    -0.405456
C328     C     -0.010941    -0.179118    -0.094544
C329     C      0.416398    -0.168177    -0.489059
C330     C     -0.168177    -0.489059     0.416398
C331     C     -0.179118    -0.094544    -0.010941
C332     C     -0.331823     0.084575    -0.320882
C333     C     -0.320882    -0.331823     0.084575
C334     C     -0.405456     0.415425     0.083602
C335     C      0.083602    -0.405456     0.415425
C336     C     -0.094544    -0.010941    -0.179118
C337     C     -0.201816    -0.066714     0.249697
C338     C      0.183589    -0.451513     0.250303
C339     C     -0.298184    -0.048487     0.135102
C340     C      0.316411    -0.433286     0.364898
C341     C      0.249697    -0.201816    -0.066714
C342     C     -0.066714     0.249697    -0.201816
C343     C      0.364898     0.316411    -0.433286
C344     C     -0.451513     0.250303     0.183589
C345     C      0.250303     0.183589    -0.451513
C346     C     -0.048487     0.135102    -0.298184
C347     C      0.135102    -0.298184    -0.048487
C348     C     -0.433286     0.364898     0.316411
C349     C      0.433286     0.298184    -0.250303
C350     C      0.048487    -0.316411    -0.249697
C351     C      0.451513     0.201816    -0.364898
C352     C      0.066714    -0.183589    -0.135102
C353     C      0.298184    -0.250303     0.433286
C354     C     -0.250303     0.433286     0.298184
C355     C     -0.183589    -0.135102     0.066714
C356     C     -0.249697     0.048487    -0.316411
C357     C     -0.316411    -0.249697     0.048487
C358     C     -0.364898     0.451513     0.201816
C359     C      0.201816    -0.364898     0.451513
C360     C     -0.135102     0.066714    -0.183589
C361     C     -0.125598    -0.026263     0.313579
C362     C      0.160157    -0.439177     0.186421
C363     C     -0.374402    -0.060823     0.099334
C364     C      0.339843    -0.473737     0.400666
C365     C      0.313579    -0.125598    -0.026263
C366     C     -0.026263     0.313579    -0.125598
C367     C      0.400666     0.339843    -0.473737
C368     C     -0.439177     0.186421     0.160157
C369     C      0.186421     0.160157    -0.439177
C370     C     -0.060823     0.099334    -0.374402
C371     C      0.099334    -0.374402    -0.060823
C372     C     -0.473737     0.400666     0.339843
C373     C      0.473737     0.374402    -0.186421
C374     C      0.060823    -0.339843    -0.313579
C375     C      0.439177     0.125598    -0.400666
C376     C      0.026263    -0.160157    -0.099334
C377     C      0.374402    -0.186421     0.473737
C378     C     -0.186421     0.473737     0.374402
C379     C     -0.160157    -0.099334     0.026263
C380     C     -0.313579     0.060823    -0.339843
C381     C     -0.339843    -0.313579     0.060823
C382     C     -0.400666     0.439177     0.125598
C383     C      0.125598    -0.400666     0.439177
C384     C     -0.099334     0.026263    -0.160157
C385     C     -0.142483    -0.061541     0.235675
C386     C      0.202785    -0.378158     0.264325
C387     C     -0.357517    -0.121842     0.080942
C388     C      0.297215    -0.438459     0.419058
C389     C      0.235675    -0.142483    -0.061541
C390     C     -0.061541     0.235675    -0.142483
C391     C      0.419058     0.297215    -0.438459
C392     C     -0.378158     0.264325     0.202785
C393     C      0.264325     0.202785    -0.378158
C394     C     -0.121842     0.080942    -0.357517
C395     C      0.080942    -0.357517    -0.121842
C396     C     -0.438459     0.419058     0.297215
C397     C      0.438459     0.357517    -0.264325
C398     C      0.121842    -0.297215    -0.235675
C399     C      0.378158     0.142483    -0.419058
C400     C      0.061541    -0.202785    -0.080942
C401     C      0.357517    -0.264325     0.438459
C402     C     -0.264325     0.438459     0.357517
C403     C     -0.202785    -0.080942     0.061541
C404     C     -0.235675     0.121842    -0.297215
C405     C     -0.297215    -0.235675     0.121842
C406     C     -0.419058     0.378158     0.142483
C407     C      0.142483    -0.419058     0.378158
C408     C     -0.080942     0.061541    -0.202785
C409     C     -0.105568    -0.014315     0.387708
C410     C      0.097977    -0.493276     0.112292
C411     C     -0.394432    -0.006724     0.091253
C412     C      0.402023    -0.485685     0.408747
C413     C      0.387708    -0.105568    -0.014315
C414     C     -0.014315     0.387708    -0.105568
C415     C      0.408747     0.402023    -0.485685
C416     C     -0.493276     0.112292     0.097977
C417     C      0.112292     0.097977    -0.493276
C418     C     -0.006724     0.091253    -0.394432
C419     C      0.091253    -0.394432    -0.006724
C420     C     -0.485685     0.408747     0.402023
C421     C      0.485685     0.394432    -0.112292
C422     C      0.006724    -0.402023    -0.387708
C423     C      0.493276     0.105568    -0.408747
C424     C      0.014315    -0.097977    -0.091253
C425     C      0.394432    -0.112292     0.485685
C426     C     -0.112292     0.485685     0.394432
C427     C     -0.097977    -0.091253     0.014315
C428     C     -0.387708     0.006724    -0.402023
C429     C     -0.402023    -0.387708     0.006724
C430     C     -0.408747     0.493276     0.105568
C431     C      0.105568    -0.408747     0.493276
C432     C     -0.091253     0.014315    -0.097977
C433     C     -0.052354     0.033089     0.377958
C434     C      0.155131    -0.430311     0.122042
C435     C     -0.447646    -0.069689     0.085442
C436     C      0.344869     0.466911     0.414558
C437     C      0.377958    -0.052354     0.033089
C438     C      0.033089     0.377958    -0.052354
C439     C      0.414558     0.344869     0.466911
C440     C     -0.430311     0.122042     0.155131
C441     C      0.122042     0.155131    -0.430311
C442     C     -0.069689     0.085442    -0.447646
C443     C      0.085442    -0.447646    -0.069689
C444     C      0.466911     0.414558     0.344869
C445     C     -0.466911     0.447646    -0.122042
C446     C      0.069689    -0.344869    -0.377958
C447     C      0.430311     0.052354    -0.414558
C448     C     -0.033089    -0.155131    -0.085442
C449     C      0.447646    -0.122042    -0.466911
C450     C     -0.122042    -0.466911     0.447646
C451     C     -0.155131    -0.085442    -0.033089
C452     C     -0.377958     0.069689    -0.344869
C453     C     -0.344869    -0.377958     0.069689
C454     C     -0.414558     0.430311     0.052354
C455     C      0.052354    -0.414558     0.430311
C456     C     -0.085442    -0.033089    -0.155131
B1       B     -0.030216     0.042201     0.455393
B2       B      0.086807    -0.485609     0.044607
B3       B     -0.469784    -0.014391     0.072417
B4       B      0.413193     0.457799     0.427583
B5       B      0.455393    -0.030216     0.042201
B6       B      0.042201     0.455393    -0.030216
B7       B      0.427583     0.413193     0.457799
B8       B     -0.485609     0.044607     0.086807
B9       B      0.044607     0.086807    -0.485609
B10      B     -0.014391     0.072417    -0.469784
B11      B      0.072417    -0.469784    -0.014391
B12      B      0.457799     0.427583     0.413193
B13      B     -0.457799     0.469784    -0.044607
B14      B      0.014391    -0.413193    -0.455393
B15      B      0.485609     0.030216    -0.427583
B16      B     -0.042201    -0.086807    -0.072417
B17      B      0.469784    -0.044607    -0.457799
B18      B     -0.044607    -0.457799     0.469784
B19      B     -0.086807    -0.072417    -0.042201
B20      B     -0.455393     0.014391    -0.413193
B21      B     -0.413193    -0.455393     0.014391
B22      B     -0.427583     0.485609     0.030216
B23      B      0.030216    -0.427583     0.485609
B24      B     -0.072417    -0.042201    -0.086807
C457     C     -0.135840    -0.037257     0.342199
C458     C      0.120544    -0.478040     0.157801
C459     C     -0.364160    -0.021960     0.098584
C460     C      0.379456    -0.462743     0.401416
C461     C      0.342199    -0.135840    -0.037257
C462     C     -0.037257     0.342199    -0.135840
C463     C      0.401416     0.379456    -0.462743
C464     C     -0.478040     0.157801     0.120544
C465     C      0.157801     0.120544    -0.478040
C466     C     -0.021960     0.098584    -0.364160
C467     C      0.098584    -0.364160    -0.021960
C468     C     -0.462743     0.401416     0.379456
C469     C      0.462743     0.364160    -0.157801
C470     C      0.021960    -0.379456    -0.342199
C471     C      0.478040     0.135840    -0.401416
C472     C      0.037257    -0.120544    -0.098584
C473     C      0.364160    -0.157801     0.462743
C474     C     -0.157801     0.462743     0.364160
C475     C     -0.120544    -0.098584     0.037257
C476     C     -0.342199     0.021960    -0.379456
C477     C     -0.379456    -0.342199     0.021960
C478     C     -0.401416     0.478040     0.135840
C479     C      0.135840    -0.401416     0.478040
C480     C     -0.098584     0.037257    -0.120544
C481     C     -0.375000     0.375000     0.250000
C482     C     -0.125000     0.125000    -0.250000
C483     C      0.250000    -0.375000     0.375000
C484     C      0.375000     0.250000    -0.375000
C485     C     -0.250000    -0.125000     0.125000
C486     C      0.125000    -0.250000    -0.125000
