data_MSUCOF-4-FeCp_BULK_OPTGEOM_DZ_optimized

_cell_length_a    37.301524
_cell_length_b    37.301524
_cell_length_c    37.301524
_cell_angle_alpha 109.471221
_cell_angle_beta  109.471221
_cell_angle_gamma 109.471221

_symmetry_space_group_name_H-M  'P 1'
_symmetry_Int_Tables_number     1

loop_
_symmetry_equiv_pos_as_xyz
  'x, y, z'

loop_
_atom_site_label
_atom_site_type_symbol
_atom_site_fract_x
_atom_site_fract_y
_atom_site_fract_z
H1       H      0.328407     0.044197     0.014245
H2       H     -0.470048     0.314162     0.485755
H3       H      0.171593     0.185838    -0.284210
H4       H     -0.029952     0.455803    -0.215790
H5       H      0.014245     0.328407     0.044197
H6       H      0.044197     0.014245     0.328407
H7       H     -0.215790    -0.029952     0.455803
H8       H      0.314162     0.485755    -0.470048
H9       H      0.485755    -0.470048     0.314162
H10      H      0.185838    -0.284210     0.171593
H11      H     -0.284210     0.171593     0.185838
H12      H      0.455803    -0.215790    -0.029952
H13      H     -0.455803    -0.171593    -0.485755
H14      H     -0.185838     0.029952    -0.014245
H15      H     -0.314162    -0.328407     0.215790
H16      H     -0.044197     0.470048     0.284210
H17      H     -0.171593    -0.485755    -0.455803
H18      H     -0.485755    -0.455803    -0.171593
H19      H      0.470048     0.284210    -0.044197
H20      H     -0.014245    -0.185838     0.029952
H21      H      0.029952    -0.014245    -0.185838
H22      H      0.215790    -0.314162    -0.328407
H23      H     -0.328407     0.215790    -0.314162
H24      H      0.284210    -0.044197     0.470048
H25      H      0.295702    -0.083018    -0.084835
H26      H     -0.498183     0.380537    -0.415165
H27      H      0.204298     0.119463    -0.378720
H28      H     -0.001817    -0.416982    -0.121280
H29      H     -0.084835     0.295702    -0.083018
H30      H     -0.083018    -0.084835     0.295702
H31      H     -0.121280    -0.001817    -0.416982
H32      H      0.380537    -0.415165    -0.498183
H33      H     -0.415165    -0.498183     0.380537
H34      H      0.119463    -0.378720     0.204298
H35      H     -0.378720     0.204298     0.119463
H36      H     -0.416982    -0.121280    -0.001817
H37      H      0.416982    -0.204298     0.415165
H38      H     -0.119463     0.001817     0.084835
H39      H     -0.380537    -0.295702     0.121280
H40      H      0.083018     0.498183     0.378720
H41      H     -0.204298     0.415165     0.416982
H42      H      0.415165     0.416982    -0.204298
H43      H      0.498183     0.378720     0.083018
H44      H      0.084835    -0.119463     0.001817
H45      H      0.001817     0.084835    -0.119463
H46      H      0.121280    -0.380537    -0.295702
H47      H     -0.295702     0.121280    -0.380537
H48      H      0.378720     0.083018     0.498183
H49      H      0.383236    -0.030145    -0.042090
H50      H     -0.488055     0.425326    -0.457910
H51      H      0.116764     0.074674    -0.413381
H52      H     -0.011945    -0.469855    -0.086619
H53      H     -0.042090     0.383236    -0.030145
H54      H     -0.030145    -0.042090     0.383236
H55      H     -0.086619    -0.011945    -0.469855
H56      H      0.425326    -0.457910    -0.488055
H57      H     -0.457910    -0.488055     0.425326
H58      H      0.074674    -0.413381     0.116764
H59      H     -0.413381     0.116764     0.074674
H60      H     -0.469855    -0.086619    -0.011945
H61      H      0.469855    -0.116764     0.457910
H62      H     -0.074674     0.011945     0.042090
H63      H     -0.425326    -0.383236     0.086619
H64      H      0.030145     0.488055     0.413381
H65      H     -0.116764     0.457910     0.469855
H66      H      0.457910     0.469855    -0.116764
H67      H      0.488055     0.413381     0.030145
H68      H      0.042090    -0.074674     0.011945
H69      H      0.011945     0.042090    -0.074674
H70      H      0.086619    -0.425326    -0.383236
H71      H     -0.383236     0.086619    -0.425326
H72      H      0.413381     0.030145     0.488055
H73      H      0.261371    -0.036771    -0.050335
H74      H     -0.486436     0.311706    -0.449665
H75      H      0.238629     0.188294    -0.298142
H76      H     -0.013564    -0.463229    -0.201858
H77      H     -0.050335     0.261371    -0.036771
H78      H     -0.036771    -0.050335     0.261371
H79      H     -0.201858    -0.013564    -0.463229
H80      H      0.311706    -0.449665    -0.486436
H81      H     -0.449665    -0.486436     0.311706
H82      H      0.188294    -0.298142     0.238629
H83      H     -0.298142     0.238629     0.188294
H84      H     -0.463229    -0.201858    -0.013564
H85      H      0.463229    -0.238629     0.449665
H86      H     -0.188294     0.013564     0.050335
H87      H     -0.311706    -0.261371     0.201858
H88      H      0.036771     0.486436     0.298142
H89      H     -0.238629     0.449665     0.463229
H90      H      0.449665     0.463229    -0.238629
H91      H      0.486436     0.298142     0.036771
H92      H      0.050335    -0.188294     0.013564
H93      H      0.013564     0.050335    -0.188294
H94      H      0.201858    -0.311706    -0.261371
H95      H     -0.261371     0.201858    -0.311706
H96      H      0.298142     0.036771     0.486436
C1       C      0.331072     0.018489    -0.007239
C2       C     -0.474272     0.338311    -0.492761
C3       C      0.168928     0.161689    -0.312582
C4       C     -0.025728     0.481511    -0.187418
C5       C     -0.007239     0.331072     0.018489
C6       C      0.018489    -0.007239     0.331072
C7       C     -0.187418    -0.025728     0.481511
C8       C      0.338311    -0.492761    -0.474272
C9       C     -0.492761    -0.474272     0.338311
C10      C      0.161689    -0.312582     0.168928
C11      C     -0.312582     0.168928     0.161689
C12      C      0.481511    -0.187418    -0.025728
C13      C     -0.481511    -0.168928     0.492761
C14      C     -0.161689     0.025728     0.007239
C15      C     -0.338311    -0.331072     0.187418
C16      C     -0.018489     0.474272     0.312582
C17      C     -0.168928     0.492761    -0.481511
C18      C      0.492761    -0.481511    -0.168928
C19      C      0.474272     0.312582    -0.018489
C20      C      0.007239    -0.161689     0.025728
C21      C      0.025728     0.007239    -0.161689
C22      C      0.187418    -0.338311    -0.331072
C23      C     -0.331072     0.187418    -0.338311
C24      C      0.312582    -0.018489     0.474272
C25      C      0.370769     0.021112    -0.005396
C26      C     -0.473492     0.376165    -0.494604
C27      C      0.129231     0.123835    -0.349657
C28      C     -0.026508     0.478888    -0.150343
C29      C     -0.005396     0.370769     0.021112
C30      C      0.021112    -0.005396     0.370769
C31      C     -0.150343    -0.026508     0.478888
C32      C      0.376165    -0.494604    -0.473492
C33      C     -0.494604    -0.473492     0.376165
C34      C      0.123835    -0.349657     0.129231
C35      C     -0.349657     0.129231     0.123835
C36      C      0.478888    -0.150343    -0.026508
C37      C     -0.478888    -0.129231     0.494604
C38      C     -0.123835     0.026508     0.005396
C39      C     -0.376165    -0.370769     0.150343
C40      C     -0.021112     0.473492     0.349657
C41      C     -0.129231     0.494604    -0.478888
C42      C      0.494604    -0.478888    -0.129231
C43      C      0.473492     0.349657    -0.021112
C44      C      0.005396    -0.123835     0.026508
C45      C      0.026508     0.005396    -0.123835
C46      C      0.150343    -0.376165    -0.370769
C47      C     -0.370769     0.150343    -0.376165
C48      C      0.349657    -0.021112     0.473492
C49      C      0.295655    -0.024474    -0.041265
C50      C     -0.483209     0.336921    -0.458735
C51      C      0.204345     0.163079    -0.320129
C52      C     -0.016791    -0.475526    -0.179871
C53      C     -0.041265     0.295655    -0.024474
C54      C     -0.024474    -0.041265     0.295655
C55      C     -0.179871    -0.016791    -0.475526
C56      C      0.336921    -0.458735    -0.483209
C57      C     -0.458735    -0.483209     0.336921
C58      C      0.163079    -0.320129     0.204345
C59      C     -0.320129     0.204345     0.163079
C60      C     -0.475526    -0.179871    -0.016791
C61      C      0.475526    -0.204345     0.458735
C62      C     -0.163079     0.016791     0.041265
C63      C     -0.336921    -0.295655     0.179871
C64      C      0.024474     0.483209     0.320129
C65      C     -0.204345     0.458735     0.475526
C66      C      0.458735     0.475526    -0.204345
C67      C      0.483209     0.320129     0.024474
C68      C      0.041265    -0.163079     0.016791
C69      C      0.016791     0.041265    -0.163079
C70      C      0.179871    -0.336921    -0.295655
C71      C     -0.295655     0.179871    -0.336921
C72      C      0.320129     0.024474     0.483209
Fe1      Fe     0.340786    -0.027426     0.004753
Fe2      Fe     0.467821     0.336033     0.495247
Fe3      Fe     0.159214     0.163967    -0.368212
Fe4      Fe     0.032179    -0.472574    -0.131788
Fe5      Fe     0.004753     0.340786    -0.027426
Fe6      Fe    -0.027426     0.004753     0.340786
Fe7      Fe    -0.131788     0.032179    -0.472574
Fe8      Fe     0.336033     0.495247     0.467821
Fe9      Fe     0.495247     0.467821     0.336033
Fe10     Fe     0.163967    -0.368212     0.159214
Fe11     Fe    -0.368212     0.159214     0.163967
Fe12     Fe    -0.472574    -0.131788     0.032179
Fe13     Fe     0.472574    -0.159214    -0.495247
Fe14     Fe    -0.163967    -0.032179    -0.004753
Fe15     Fe    -0.336033    -0.340786     0.131788
Fe16     Fe     0.027426    -0.467821     0.368212
Fe17     Fe    -0.159214    -0.495247     0.472574
Fe18     Fe    -0.495247     0.472574    -0.159214
Fe19     Fe    -0.467821     0.368212     0.027426
Fe20     Fe    -0.004753    -0.163967    -0.032179
Fe21     Fe    -0.032179    -0.004753    -0.163967
Fe22     Fe     0.131788    -0.336033    -0.340786
Fe23     Fe    -0.340786     0.131788    -0.336033
Fe24     Fe     0.368212     0.027426    -0.467821
H97      H      0.417096     0.019527     0.086024
H98      H      0.433503     0.331072     0.413976
H99      H      0.082904     0.168928    -0.397569
H100     H      0.066497     0.480473    -0.102431
H101     H      0.086024     0.417096     0.019527
H102     H      0.019527     0.086024     0.417096
H103     H     -0.102431     0.066497     0.480473
H104     H      0.331072     0.413976     0.433503
H105     H      0.413976     0.433503     0.331072
H106     H      0.168928    -0.397569     0.082904
H107     H     -0.397569     0.082904     0.168928
H108     H      0.480473    -0.102431     0.066497
H109     H     -0.480473    -0.082904    -0.413976
H110     H     -0.168928    -0.066497    -0.086024
H111     H     -0.331072    -0.417096     0.102431
H112     H     -0.019527    -0.433503     0.397569
H113     H     -0.082904    -0.413976    -0.480473
H114     H     -0.413976    -0.480473    -0.082904
H115     H     -0.433503     0.397569    -0.019527
H116     H     -0.086024    -0.168928    -0.066497
H117     H     -0.066497    -0.086024    -0.168928
H118     H      0.102431    -0.331072    -0.417096
H119     H     -0.417096     0.102431    -0.331072
H120     H      0.397569    -0.019527    -0.433503
C73      C      0.313527    -0.048498    -0.060119
C74      C     -0.488379     0.373646    -0.439881
C75      C      0.186473     0.126354    -0.362025
C76      C     -0.011621    -0.451502    -0.137975
C77      C     -0.060119     0.313527    -0.048498
C78      C     -0.048498    -0.060119     0.313527
C79      C     -0.137975    -0.011621    -0.451502
C80      C      0.373646    -0.439881    -0.488379
C81      C     -0.439881    -0.488379     0.373646
C82      C      0.126354    -0.362025     0.186473
C83      C     -0.362025     0.186473     0.126354
C84      C     -0.451502    -0.137975    -0.011621
C85      C      0.451502    -0.186473     0.439881
C86      C     -0.126354     0.011621     0.060119
C87      C     -0.373646    -0.313527     0.137975
C88      C      0.048498     0.488379     0.362025
C89      C     -0.186473     0.439881     0.451502
C90      C      0.439881     0.451502    -0.186473
C91      C      0.488379     0.362025     0.048498
C92      C      0.060119    -0.126354     0.011621
C93      C      0.011621     0.060119    -0.126354
C94      C      0.137975    -0.373646    -0.313527
C95      C     -0.313527     0.137975    -0.373646
C96      C      0.362025     0.048498     0.488379
H121     H      0.340628     0.007281     0.083868
H122     H      0.423412     0.256760     0.416132
H123     H      0.159372     0.243240    -0.333347
H124     H      0.076588     0.492719    -0.166653
H125     H      0.083868     0.340628     0.007281
H126     H      0.007281     0.083868     0.340628
H127     H     -0.166653     0.076588     0.492719
H128     H      0.256760     0.416132     0.423412
H129     H      0.416132     0.423412     0.256760
H130     H      0.243240    -0.333347     0.159372
H131     H     -0.333347     0.159372     0.243240
H132     H      0.492719    -0.166653     0.076588
H133     H     -0.492719    -0.159372    -0.416132
H134     H     -0.243240    -0.076588    -0.083868
H135     H     -0.256760    -0.340628     0.166653
H136     H     -0.007281    -0.423412     0.333347
H137     H     -0.159372    -0.416132    -0.492719
H138     H     -0.416132    -0.492719    -0.159372
H139     H     -0.423412     0.333347    -0.007281
H140     H     -0.083868    -0.243240    -0.076588
H141     H     -0.076588    -0.083868    -0.243240
H142     H      0.166653    -0.256760    -0.340628
H143     H     -0.340628     0.166653    -0.256760
H144     H      0.333347    -0.007281    -0.423412
C97      C      0.311479    -0.060702     0.029526
C98      C      0.409772     0.281953     0.470474
C99      C      0.188521     0.218047    -0.372181
C100     C      0.090228    -0.439298    -0.127819
C101     C      0.029526     0.311479    -0.060702
C102     C     -0.060702     0.029526     0.311479
C103     C     -0.127819     0.090228    -0.439298
C104     C      0.281953     0.470474     0.409772
C105     C      0.470474     0.409772     0.281953
C106     C      0.218047    -0.372181     0.188521
C107     C     -0.372181     0.188521     0.218047
C108     C     -0.439298    -0.127819     0.090228
C109     C      0.439298    -0.188521    -0.470474
C110     C     -0.218047    -0.090228    -0.029526
C111     C     -0.281953    -0.311479     0.127819
C112     C      0.060702    -0.409772     0.372181
C113     C     -0.188521    -0.470474     0.439298
C114     C     -0.470474     0.439298    -0.188521
C115     C     -0.409772     0.372181     0.060702
C116     C     -0.029526    -0.218047    -0.090228
C117     C     -0.090228    -0.029526    -0.218047
C118     C      0.127819    -0.281953    -0.311479
C119     C     -0.311479     0.127819    -0.281953
C120     C      0.372181     0.060702    -0.409772
C121     C      0.385665    -0.010653     0.064868
C122     C      0.424478     0.320797     0.435132
C123     C      0.114335     0.179203    -0.396319
C124     C      0.075522    -0.489347    -0.103681
C125     C      0.064868     0.385665    -0.010653
C126     C     -0.010653     0.064868     0.385665
C127     C     -0.103681     0.075522    -0.489347
C128     C      0.320797     0.435132     0.424478
C129     C      0.435132     0.424478     0.320797
C130     C      0.179203    -0.396319     0.114335
C131     C     -0.396319     0.114335     0.179203
C132     C     -0.489347    -0.103681     0.075522
C133     C      0.489347    -0.114335    -0.435132
C134     C     -0.179203    -0.075522    -0.064868
C135     C     -0.320797    -0.385665     0.103681
C136     C      0.010653    -0.424478     0.396319
C137     C     -0.114335    -0.435132     0.489347
C138     C     -0.435132     0.489347    -0.114335
C139     C     -0.424478     0.396319     0.010653
C140     C     -0.064868    -0.179203    -0.075522
C141     C     -0.075522    -0.064868    -0.179203
C142     C      0.103681    -0.320797    -0.385665
C143     C     -0.385665     0.103681    -0.320797
C144     C      0.396319     0.010653    -0.424478
C145     C      0.345308    -0.017319     0.063587
C146     C      0.419094     0.281721     0.436413
C147     C      0.154692     0.218279    -0.362627
C148     C      0.080906    -0.482681    -0.137373
C149     C      0.063587     0.345308    -0.017319
C150     C     -0.017319     0.063587     0.345308
C151     C     -0.137373     0.080906    -0.482681
C152     C      0.281721     0.436413     0.419094
C153     C      0.436413     0.419094     0.281721
C154     C      0.218279    -0.362627     0.154692
C155     C     -0.362627     0.154692     0.218279
C156     C     -0.482681    -0.137373     0.080906
C157     C      0.482681    -0.154692    -0.436413
C158     C     -0.218279    -0.080906    -0.063587
C159     C     -0.281721    -0.345308     0.137373
C160     C      0.017319    -0.419094     0.362627
C161     C     -0.154692    -0.436413     0.482681
C162     C     -0.436413     0.482681    -0.154692
C163     C     -0.419094     0.362627     0.017319
C164     C     -0.063587    -0.218279    -0.080906
C165     C     -0.080906    -0.063587    -0.218279
C166     C      0.137373    -0.281721    -0.345308
C167     C     -0.345308     0.137373    -0.281721
C168     C      0.362627     0.017319    -0.419094
H145     H      0.277184    -0.075262     0.020562
H146     H      0.404176     0.256622     0.479438
H147     H      0.222816     0.243378    -0.352446
H148     H      0.095824    -0.424738    -0.147554
H149     H      0.020562     0.277184    -0.075262
H150     H     -0.075262     0.020562     0.277184
H151     H     -0.147554     0.095824    -0.424738
H152     H      0.256622     0.479438     0.404176
H153     H      0.479438     0.404176     0.256622
H154     H      0.243378    -0.352446     0.222816
H155     H     -0.352446     0.222816     0.243378
H156     H     -0.424738    -0.147554     0.095824
H157     H      0.424738    -0.222816    -0.479438
H158     H     -0.243378    -0.095824    -0.020562
H159     H     -0.256622    -0.277184     0.147554
H160     H      0.075262    -0.404176     0.352446
H161     H     -0.222816    -0.479438     0.424738
H162     H     -0.479438     0.424738    -0.222816
H163     H     -0.404176     0.352446     0.075262
H164     H     -0.020562    -0.243378    -0.095824
H165     H     -0.095824    -0.020562    -0.243378
H166     H      0.147554    -0.256622    -0.277184
H167     H     -0.277184     0.147554    -0.256622
H168     H      0.352446     0.075262    -0.404176
H169     H      0.403640     0.048899     0.018070
H170     H     -0.469171     0.385570     0.481930
H171     H      0.096360     0.114430    -0.354740
H172     H     -0.030829     0.451101    -0.145260
H173     H      0.018070     0.403640     0.048899
H174     H      0.048899     0.018070     0.403640
H175     H     -0.145260    -0.030829     0.451101
H176     H      0.385570     0.481930    -0.469171
H177     H      0.481930    -0.469171     0.385570
H178     H      0.114430    -0.354740     0.096360
H179     H     -0.354740     0.096360     0.114430
H180     H      0.451101    -0.145260    -0.030829
H181     H     -0.451101    -0.096360    -0.481930
H182     H     -0.114430     0.030829    -0.018070
H183     H     -0.385570    -0.403640     0.145260
H184     H     -0.048899     0.469171     0.354740
H185     H     -0.096360    -0.481930    -0.451101
H186     H     -0.481930    -0.451101    -0.096360
H187     H      0.469171     0.354740    -0.048899
H188     H     -0.018070    -0.114430     0.030829
H189     H      0.030829    -0.018070    -0.114430
H190     H      0.145260    -0.385570    -0.403640
H191     H     -0.403640     0.145260    -0.385570
H192     H      0.354740    -0.048899     0.469171
O1       O      0.470449     0.014570     0.061352
O2       O      0.453217     0.409097     0.438648
O3       O      0.029551     0.090903    -0.455880
O4       O      0.046783     0.485430    -0.044120
O5       O      0.061352     0.470449     0.014570
O6       O      0.014570     0.061352     0.470449
O7       O     -0.044120     0.046783     0.485430
O8       O      0.409097     0.438648     0.453217
O9       O      0.438648     0.453217     0.409097
O10      O      0.090903    -0.455880     0.029551
O11      O     -0.455880     0.029551     0.090903
O12      O      0.485430    -0.044120     0.046783
O13      O     -0.485430    -0.029551    -0.438648
O14      O     -0.090903    -0.046783    -0.061352
O15      O     -0.409097    -0.470449     0.044120
O16      O     -0.014570    -0.453217     0.455880
O17      O     -0.029551    -0.438648    -0.485430
O18      O     -0.438648    -0.485430    -0.029551
O19      O     -0.453217     0.455880    -0.014570
O20      O     -0.061352    -0.090903    -0.046783
O21      O     -0.046783    -0.061352    -0.090903
O22      O      0.044120    -0.409097    -0.470449
O23      O     -0.470449     0.044120    -0.409097
O24      O      0.455880    -0.014570    -0.453217
H193     H      0.167479    -0.159396    -0.090183
H194     H      0.430787     0.257662    -0.409817
H195     H      0.332521     0.242338    -0.326875
H196     H      0.069213    -0.340604    -0.173125
H197     H     -0.090183     0.167479    -0.159396
H198     H     -0.159396    -0.090183     0.167479
H199     H     -0.173125     0.069213    -0.340604
H200     H      0.257662    -0.409817     0.430787
H201     H     -0.409817     0.430787     0.257662
H202     H      0.242338    -0.326875     0.332521
H203     H     -0.326875     0.332521     0.242338
H204     H     -0.340604    -0.173125     0.069213
H205     H      0.340604    -0.332521     0.409817
H206     H     -0.242338    -0.069213     0.090183
H207     H     -0.257662    -0.167479     0.173125
H208     H      0.159396    -0.430787     0.326875
H209     H     -0.332521     0.409817     0.340604
H210     H      0.409817     0.340604    -0.332521
H211     H     -0.430787     0.326875     0.159396
H212     H      0.090183    -0.242338    -0.069213
H213     H     -0.069213     0.090183    -0.242338
H214     H      0.173125    -0.257662    -0.167479
H215     H     -0.167479     0.173125    -0.257662
H216     H      0.326875     0.159396    -0.430787
H217     H      0.328623    -0.167039    -0.064842
H218     H      0.397803     0.393465    -0.435158
H219     H      0.171377     0.106535    -0.495662
H220     H      0.102197    -0.332961    -0.004338
H221     H     -0.064842     0.328623    -0.167039
H222     H     -0.167039    -0.064842     0.328623
H223     H     -0.004338     0.102197    -0.332961
H224     H      0.393465    -0.435158     0.397803
H225     H     -0.435158     0.397803     0.393465
H226     H      0.106535    -0.495662     0.171377
H227     H     -0.495662     0.171377     0.106535
H228     H     -0.332961    -0.004338     0.102197
H229     H      0.332961    -0.171377     0.435158
H230     H     -0.106535    -0.102197     0.064842
H231     H     -0.393465    -0.328623     0.004338
H232     H      0.167039    -0.397803     0.495662
H233     H     -0.171377     0.435158     0.332961
H234     H      0.435158     0.332961    -0.171377
H235     H     -0.397803     0.495662     0.167039
H236     H      0.064842    -0.106535    -0.102197
H237     H     -0.102197     0.064842    -0.106535
H238     H      0.004338    -0.393465    -0.328623
H239     H     -0.328623     0.004338    -0.393465
H240     H      0.495662     0.167039    -0.397803
C169     C      0.359949    -0.020297    -0.037894
C170     C     -0.482402     0.397843    -0.462106
C171     C      0.140051     0.102157    -0.380245
C172     C     -0.017598    -0.479703    -0.119755
C173     C     -0.037894     0.359949    -0.020297
C174     C     -0.020297    -0.037894     0.359949
C175     C     -0.119755    -0.017598    -0.479703
C176     C      0.397843    -0.462106    -0.482402
C177     C     -0.462106    -0.482402     0.397843
C178     C      0.102157    -0.380245     0.140051
C179     C     -0.380245     0.140051     0.102157
C180     C     -0.479703    -0.119755    -0.017598
C181     C      0.479703    -0.140051     0.462106
C182     C     -0.102157     0.017598     0.037894
C183     C     -0.397843    -0.359949     0.119755
C184     C      0.020297     0.482402     0.380245
C185     C     -0.140051     0.462106     0.479703
C186     C      0.462106     0.479703    -0.140051
C187     C      0.482402     0.380245     0.020297
C188     C      0.037894    -0.102157     0.017598
C189     C      0.017598     0.037894    -0.102157
C190     C      0.119755    -0.397843    -0.359949
C191     C     -0.359949     0.119755    -0.397843
C192     C      0.380245     0.020297     0.482402
H241     H      0.193014    -0.265151    -0.099806
H242     H      0.334655     0.292820    -0.400194
H243     H      0.306986     0.207180    -0.458165
H244     H      0.165345    -0.234849    -0.041835
H245     H     -0.099806     0.193014    -0.265151
H246     H     -0.265151    -0.099806     0.193014
H247     H     -0.041835     0.165345    -0.234849
H248     H      0.292820    -0.400194     0.334655
H249     H     -0.400194     0.334655     0.292820
H250     H      0.207180    -0.458165     0.306986
H251     H     -0.458165     0.306986     0.207180
H252     H     -0.234849    -0.041835     0.165345
H253     H      0.234849    -0.306986     0.400194
H254     H     -0.207180    -0.165345     0.099806
H255     H     -0.292820    -0.193014     0.041835
H256     H      0.265151    -0.334655     0.458165
H257     H     -0.306986     0.400194     0.234849
H258     H      0.400194     0.234849    -0.306986
H259     H     -0.334655     0.458165     0.265151
H260     H      0.099806    -0.207180    -0.165345
H261     H     -0.165345     0.099806    -0.207180
H262     H      0.041835    -0.292820    -0.193014
H263     H     -0.193014     0.041835    -0.292820
H264     H      0.458165     0.265151    -0.334655
H265     H      0.272805    -0.212796    -0.058246
H266     H      0.345451     0.331051    -0.441754
H267     H      0.227195     0.168949    -0.485600
H268     H      0.154549    -0.287204    -0.014400
H269     H     -0.058246     0.272805    -0.212796
H270     H     -0.212796    -0.058246     0.272805
H271     H     -0.014400     0.154549    -0.287204
H272     H      0.331051    -0.441754     0.345451
H273     H     -0.441754     0.345451     0.331051
H274     H      0.168949    -0.485600     0.227195
H275     H     -0.485600     0.227195     0.168949
H276     H     -0.287204    -0.014400     0.154549
H277     H      0.287204    -0.227195     0.441754
H278     H     -0.168949    -0.154549     0.058246
H279     H     -0.331051    -0.272805     0.014400
H280     H      0.212796    -0.345451     0.485600
H281     H     -0.227195     0.441754     0.287204
H282     H      0.441754     0.287204    -0.227195
H283     H     -0.345451     0.485600     0.212796
H284     H      0.058246    -0.168949    -0.154549
H285     H     -0.154549     0.058246    -0.168949
H286     H      0.014400    -0.331051    -0.272805
H287     H     -0.272805     0.014400    -0.331051
H288     H      0.485600     0.212796    -0.345451
H289     H      0.408651    -0.114762    -0.023552
H290     H      0.408790     0.432203    -0.476448
H291     H      0.091349     0.067797     0.476587
H292     H      0.091210    -0.385238     0.023413
H293     H     -0.023552     0.408651    -0.114762
H294     H     -0.114762    -0.023552     0.408651
H295     H      0.023413     0.091210    -0.385238
H296     H      0.432203    -0.476448     0.408790
H297     H     -0.476448     0.408790     0.432203
H298     H      0.067797     0.476587     0.091349
H299     H      0.476587     0.091349     0.067797
H300     H     -0.385238     0.023413     0.091210
H301     H      0.385238    -0.091349     0.476448
H302     H     -0.067797    -0.091210     0.023552
H303     H     -0.432203    -0.408651    -0.023413
H304     H      0.114762    -0.408790    -0.476587
H305     H     -0.091349     0.476448     0.385238
H306     H      0.476448     0.385238    -0.091349
H307     H     -0.408790    -0.476587     0.114762
H308     H      0.023552    -0.067797    -0.091210
H309     H     -0.091210     0.023552    -0.067797
H310     H     -0.023413    -0.432203    -0.408651
H311     H     -0.408651    -0.023413    -0.432203
H312     H     -0.476587     0.114762    -0.408790
H313     H      0.247296    -0.107501    -0.050741
H314     H      0.443240     0.298037    -0.449259
H315     H      0.252704     0.201963    -0.354797
H316     H      0.056760    -0.392499    -0.145203
H317     H     -0.050741     0.247296    -0.107501
H318     H     -0.107501    -0.050741     0.247296
H319     H     -0.145203     0.056760    -0.392499
H320     H      0.298037    -0.449259     0.443240
H321     H     -0.449259     0.443240     0.298037
H322     H      0.201963    -0.354797     0.252704
H323     H     -0.354797     0.252704     0.201963
H324     H     -0.392499    -0.145203     0.056760
H325     H      0.392499    -0.252704     0.449259
H326     H     -0.201963    -0.056760     0.050741
H327     H     -0.298037    -0.247296     0.145203
H328     H      0.107501    -0.443240     0.354797
H329     H     -0.252704     0.449259     0.392499
H330     H      0.449259     0.392499    -0.252704
H331     H     -0.443240     0.354797     0.107501
H332     H      0.050741    -0.201963    -0.056760
H333     H     -0.056760     0.050741    -0.201963
H334     H      0.145203    -0.298037    -0.247296
H335     H     -0.247296     0.145203    -0.298037
H336     H      0.354797     0.107501    -0.443240
C193     C      0.204875    -0.230549    -0.089736
C194     C      0.359186     0.294611    -0.410264
C195     C      0.295125     0.205389    -0.435424
C196     C      0.140814    -0.269451    -0.064576
C197     C     -0.089736     0.204875    -0.230549
C198     C     -0.230549    -0.089736     0.204875
C199     C     -0.064576     0.140814    -0.269451
C200     C      0.294611    -0.410264     0.359186
C201     C     -0.410264     0.359186     0.294611
C202     C      0.205389    -0.435424     0.295125
C203     C     -0.435424     0.295125     0.205389
C204     C     -0.269451    -0.064576     0.140814
C205     C      0.269451    -0.295125     0.410264
C206     C     -0.205389    -0.140814     0.089736
C207     C     -0.294611    -0.204875     0.064576
C208     C      0.230549    -0.359186     0.435424
C209     C     -0.295125     0.410264     0.269451
C210     C      0.410264     0.269451    -0.295125
C211     C     -0.359186     0.435424     0.230549
C212     C      0.089736    -0.205389    -0.140814
C213     C     -0.140814     0.089736    -0.205389
C214     C      0.064576    -0.294611    -0.204875
C215     C     -0.204875     0.064576    -0.294611
C216     C      0.435424     0.230549    -0.359186
C217     C      0.265743    -0.156273    -0.051467
C218     C      0.395193     0.317210    -0.448533
C219     C      0.234257     0.182790    -0.422017
C220     C      0.104807    -0.343727    -0.077983
C221     C     -0.051467     0.265743    -0.156273
C222     C     -0.156273    -0.051467     0.265743
C223     C     -0.077983     0.104807    -0.343727
C224     C      0.317210    -0.448533     0.395193
C225     C     -0.448533     0.395193     0.317210
C226     C      0.182790    -0.422017     0.234257
C227     C     -0.422017     0.234257     0.182790
C228     C     -0.343727    -0.077983     0.104807
C229     C      0.343727    -0.234257     0.448533
C230     C     -0.182790    -0.104807     0.051467
C231     C     -0.317210    -0.265743     0.077983
C232     C      0.156273    -0.395193     0.422017
C233     C     -0.234257     0.448533     0.343727
C234     C      0.448533     0.343727    -0.234257
C235     C     -0.395193     0.422017     0.156273
C236     C      0.051467    -0.182790    -0.104807
C237     C     -0.104807     0.051467    -0.182790
C238     C      0.077983    -0.317210    -0.265743
C239     C     -0.265743     0.077983    -0.317210
C240     C      0.422017     0.156273    -0.395193
C241     C      0.174242    -0.216321    -0.098942
C242     C      0.382622     0.273184    -0.401058
C243     C      0.325758     0.226816    -0.390563
C244     C      0.117378    -0.283679    -0.109437
C245     C     -0.098942     0.174242    -0.216321
C246     C     -0.216321    -0.098942     0.174242
C247     C     -0.109437     0.117378    -0.283679
C248     C      0.273184    -0.401058     0.382622
C249     C     -0.401058     0.382622     0.273184
C250     C      0.226816    -0.390563     0.325758
C251     C     -0.390563     0.325758     0.226816
C252     C     -0.283679    -0.109437     0.117378
C253     C      0.283679    -0.325758     0.401058
C254     C     -0.226816    -0.117378     0.098942
C255     C     -0.273184    -0.174242     0.109437
C256     C      0.216321    -0.382622     0.390563
C257     C     -0.325758     0.401058     0.283679
C258     C      0.401058     0.283679    -0.325758
C259     C     -0.382622     0.390563     0.216321
C260     C      0.098942    -0.226816    -0.117378
C261     C     -0.117378     0.098942    -0.226816
C262     C      0.109437    -0.273184    -0.174242
C263     C     -0.174242     0.109437    -0.273184
C264     C      0.390563     0.216321    -0.382622
C265     C      0.190339    -0.171613    -0.084216
C266     C      0.412603     0.274555    -0.415784
C267     C      0.309661     0.225445    -0.361951
C268     C      0.087397    -0.328387    -0.138049
C269     C     -0.084216     0.190339    -0.171613
C270     C     -0.171613    -0.084216     0.190339
C271     C     -0.138049     0.087397    -0.328387
C272     C      0.274555    -0.415784     0.412603
C273     C     -0.415784     0.412603     0.274555
C274     C      0.225445    -0.361951     0.309661
C275     C     -0.361951     0.309661     0.225445
C276     C     -0.328387    -0.138049     0.087397
C277     C      0.328387    -0.309661     0.415784
C278     C     -0.225445    -0.087397     0.084216
C279     C     -0.274555    -0.190339     0.138049
C280     C      0.171613    -0.412603     0.361951
C281     C     -0.309661     0.415784     0.328387
C282     C      0.415784     0.328387    -0.309661
C283     C     -0.412603     0.361951     0.171613
C284     C      0.084216    -0.225445    -0.087397
C285     C     -0.087397     0.084216    -0.225445
C286     C      0.138049    -0.274555    -0.190339
C287     C     -0.190339     0.138049    -0.274555
C288     C      0.361951     0.171613    -0.412603
C289     C      0.406130    -0.062773     0.019865
C290     C      0.417362     0.386265     0.480135
C291     C      0.093870     0.113735    -0.468903
C292     C      0.082638    -0.437227    -0.031097
C293     C      0.019865     0.406130    -0.062773
C294     C     -0.062773     0.019865     0.406130
C295     C     -0.031097     0.082638    -0.437227
C296     C      0.386265     0.480135     0.417362
C297     C      0.480135     0.417362     0.386265
C298     C      0.113735    -0.468903     0.093870
C299     C     -0.468903     0.093870     0.113735
C300     C     -0.437227    -0.031097     0.082638
C301     C      0.437227    -0.093870    -0.480135
C302     C     -0.113735    -0.082638    -0.019865
C303     C     -0.386265    -0.406130     0.031097
C304     C      0.062773    -0.417362     0.468903
C305     C     -0.093870    -0.480135     0.437227
C306     C     -0.480135     0.437227    -0.093870
C307     C     -0.417362     0.468903     0.062773
C308     C     -0.019865    -0.113735    -0.082638
C309     C     -0.082638    -0.019865    -0.113735
C310     C      0.031097    -0.386265    -0.406130
C311     C     -0.406130     0.031097    -0.386265
C312     C      0.468903     0.062773    -0.417362
C313     C      0.331127    -0.082158     0.009996
C314     C      0.407846     0.321131     0.490004
C315     C      0.168873     0.178869    -0.413285
C316     C      0.092154    -0.417842    -0.086715
C317     C      0.009996     0.331127    -0.082158
C318     C     -0.082158     0.009996     0.331127
C319     C     -0.086715     0.092154    -0.417842
C320     C      0.321131     0.490004     0.407846
C321     C      0.490004     0.407846     0.321131
C322     C      0.178869    -0.413285     0.168873
C323     C     -0.413285     0.168873     0.178869
C324     C     -0.417842    -0.086715     0.092154
C325     C      0.417842    -0.168873    -0.490004
C326     C     -0.178869    -0.092154    -0.009996
C327     C     -0.321131    -0.331127     0.086715
C328     C      0.082158    -0.407846     0.413285
C329     C     -0.168873    -0.490004     0.417842
C330     C     -0.490004     0.417842    -0.168873
C331     C     -0.407846     0.413285     0.082158
C332     C     -0.009996    -0.178869    -0.092154
C333     C     -0.092154    -0.009996    -0.178869
C334     C      0.086715    -0.321131    -0.331127
C335     C     -0.331127     0.086715    -0.321131
C336     C      0.413285     0.082158    -0.407846
C337     C      0.249667    -0.201200    -0.066479
C338     C      0.365279     0.316146    -0.433521
C339     C      0.250333     0.183854    -0.450867
C340     C      0.134721    -0.298800    -0.049133
C341     C     -0.066479     0.249667    -0.201200
C342     C     -0.201200    -0.066479     0.249667
C343     C     -0.049133     0.134721    -0.298800
C344     C      0.316146    -0.433521     0.365279
C345     C     -0.433521     0.365279     0.316146
C346     C      0.183854    -0.450867     0.250333
C347     C     -0.450867     0.250333     0.183854
C348     C     -0.298800    -0.049133     0.134721
C349     C      0.298800    -0.250333     0.433521
C350     C     -0.183854    -0.134721     0.066479
C351     C     -0.316146    -0.249667     0.049133
C352     C      0.201200    -0.365279     0.450867
C353     C     -0.250333     0.433521     0.298800
C354     C      0.433521     0.298800    -0.250333
C355     C     -0.365279     0.450867     0.201200
C356     C      0.066479    -0.183854    -0.134721
C357     C     -0.134721     0.066479    -0.183854
C358     C      0.049133    -0.316146    -0.249667
C359     C     -0.249667     0.049133    -0.316146
C360     C      0.450867     0.201200    -0.365279
C361     C      0.313147    -0.124845    -0.026377
C362     C      0.401532     0.339523    -0.473623
C363     C      0.186853     0.160477    -0.437992
C364     C      0.098468    -0.375155    -0.062008
C365     C     -0.026377     0.313147    -0.124845
C366     C     -0.124845    -0.026377     0.313147
C367     C     -0.062008     0.098468    -0.375155
C368     C      0.339523    -0.473623     0.401532
C369     C     -0.473623     0.401532     0.339523
C370     C      0.160477    -0.437992     0.186853
C371     C     -0.437992     0.186853     0.160477
C372     C     -0.375155    -0.062008     0.098468
C373     C      0.375155    -0.186853     0.473623
C374     C     -0.160477    -0.098468     0.026377
C375     C     -0.339523    -0.313147     0.062008
C376     C      0.124845    -0.401532     0.437992
C377     C     -0.186853     0.473623     0.375155
C378     C      0.473623     0.375155    -0.186853
C379     C     -0.401532     0.437992     0.124845
C380     C      0.026377    -0.160477    -0.098468
C381     C     -0.098468     0.026377    -0.160477
C382     C      0.062008    -0.339523    -0.313147
C383     C     -0.313147     0.062008    -0.339523
C384     C      0.437992     0.124845    -0.401532
C385     C      0.235213    -0.142172    -0.061197
C386     C      0.419025     0.296410    -0.438803
C387     C      0.264787     0.203590    -0.377384
C388     C      0.080975    -0.357828    -0.122616
C389     C     -0.061197     0.235213    -0.142172
C390     C     -0.142172    -0.061197     0.235213
C391     C     -0.122616     0.080975    -0.357828
C392     C      0.296410    -0.438803     0.419025
C393     C     -0.438803     0.419025     0.296410
C394     C      0.203590    -0.377384     0.264787
C395     C     -0.377384     0.264787     0.203590
C396     C     -0.357828    -0.122616     0.080975
C397     C      0.357828    -0.264787     0.438803
C398     C     -0.203590    -0.080975     0.061197
C399     C     -0.296410    -0.235213     0.122616
C400     C      0.142172    -0.419025     0.377384
C401     C     -0.264787     0.438803     0.357828
C402     C      0.438803     0.357828    -0.264787
C403     C     -0.419025     0.377384     0.142172
C404     C      0.061197    -0.203590    -0.080975
C405     C     -0.080975     0.061197    -0.203590
C406     C      0.122616    -0.296410    -0.235213
C407     C     -0.235213     0.122616    -0.296410
C408     C      0.377384     0.142172    -0.419025
C409     C      0.387538    -0.104815    -0.013700
C410     C      0.408885     0.401238    -0.486300
C411     C      0.112462     0.098762    -0.492353
C412     C      0.091115    -0.395185    -0.007647
C413     C     -0.013700     0.387538    -0.104815
C414     C     -0.104815    -0.013700     0.387538
C415     C     -0.007647     0.091115    -0.395185
C416     C      0.401238    -0.486300     0.408885
C417     C     -0.486300     0.408885     0.401238
C418     C      0.098762    -0.492353     0.112462
C419     C     -0.492353     0.112462     0.098762
C420     C     -0.395185    -0.007647     0.091115
C421     C      0.395185    -0.112462     0.486300
C422     C     -0.098762    -0.091115     0.013700
C423     C     -0.401238    -0.387538     0.007647
C424     C      0.104815    -0.408885     0.492353
C425     C     -0.112462     0.486300     0.395185
C426     C      0.486300     0.395185    -0.112462
C427     C     -0.408885     0.492353     0.104815
C428     C      0.013700    -0.098762    -0.091115
C429     C     -0.091115     0.013700    -0.098762
C430     C      0.007647    -0.401238    -0.387538
C431     C     -0.387538     0.007647    -0.401238
C432     C      0.492353     0.104815    -0.408885
C433     C      0.377505    -0.050926     0.032342
C434     C      0.416732     0.345163     0.467658
C435     C      0.122495     0.154837    -0.428430
C436     C      0.083268    -0.449074    -0.071570
C437     C      0.032342     0.377505    -0.050926
C438     C     -0.050926     0.032342     0.377505
C439     C     -0.071570     0.083268    -0.449074
C440     C      0.345163     0.467658     0.416732
C441     C      0.467658     0.416732     0.345163
C442     C      0.154837    -0.428430     0.122495
C443     C     -0.428430     0.122495     0.154837
C444     C     -0.449074    -0.071570     0.083268
C445     C      0.449074    -0.122495    -0.467658
C446     C     -0.154837    -0.083268    -0.032342
C447     C     -0.345163    -0.377505     0.071570
C448     C      0.050926    -0.416732     0.428430
C449     C     -0.122495    -0.467658     0.449074
C450     C     -0.467658     0.449074    -0.122495
C451     C     -0.416732     0.428430     0.050926
C452     C     -0.032342    -0.154837    -0.083268
C453     C     -0.083268    -0.032342    -0.154837
C454     C      0.071570    -0.345163    -0.377505
C455     C     -0.377505     0.071570    -0.345163
C456     C      0.428430     0.050926    -0.416732
B1       B      0.455335    -0.029928     0.042828
B2       B      0.427244     0.412507     0.457172
B3       B      0.044665     0.087493    -0.485263
B4       B      0.072756    -0.470072    -0.014737
B5       B      0.042828     0.455335    -0.029928
B6       B     -0.029928     0.042828     0.455335
B7       B     -0.014737     0.072756    -0.470072
B8       B      0.412507     0.457172     0.427244
B9       B      0.457172     0.427244     0.412507
B10      B      0.087493    -0.485263     0.044665
B11      B     -0.485263     0.044665     0.087493
B12      B     -0.470072    -0.014737     0.072756
B13      B      0.470072    -0.044665    -0.457172
B14      B     -0.087493    -0.072756    -0.042828
B15      B     -0.412507    -0.455335     0.014737
B16      B      0.029928    -0.427244     0.485263
B17      B     -0.044665    -0.457172     0.470072
B18      B     -0.457172     0.470072    -0.044665
B19      B     -0.427244     0.485263     0.029928
B20      B     -0.042828    -0.087493    -0.072756
B21      B     -0.072756    -0.042828    -0.087493
B22      B      0.014737    -0.412507    -0.455335
B23      B     -0.455335     0.014737    -0.412507
B24      B      0.485263     0.029928    -0.427244
C457     C      0.341825    -0.135116    -0.036874
C458     C      0.401758     0.378699    -0.463126
C459     C      0.158175     0.121301    -0.476941
C460     C      0.098242    -0.364884    -0.023059
C461     C     -0.036874     0.341825    -0.135116
C462     C     -0.135116    -0.036874     0.341825
C463     C     -0.023059     0.098242    -0.364884
C464     C      0.378699    -0.463126     0.401758
C465     C     -0.463126     0.401758     0.378699
C466     C      0.121301    -0.476941     0.158175
C467     C     -0.476941     0.158175     0.121301
C468     C     -0.364884    -0.023059     0.098242
C469     C      0.364884    -0.158175     0.463126
C470     C     -0.121301    -0.098242     0.036874
C471     C     -0.378699    -0.341825     0.023059
C472     C      0.135116    -0.401758     0.476941
C473     C     -0.158175     0.463126     0.364884
C474     C      0.463126     0.364884    -0.158175
C475     C     -0.401758     0.476941     0.135116
C476     C      0.036874    -0.121301    -0.098242
C477     C     -0.098242     0.036874    -0.121301
C478     C      0.023059    -0.378699    -0.341825
C479     C     -0.341825     0.023059    -0.378699
C480     C      0.476941     0.135116    -0.401758
C481     C      0.250000    -0.375000     0.375000
C482     C     -0.250000    -0.125000     0.125000
C483     C      0.375000     0.250000    -0.375000
C484     C     -0.375000     0.375000     0.250000
C485     C      0.125000    -0.250000    -0.125000
C486     C     -0.125000     0.125000    -0.250000
