data_MSUCOF-4-CoCp_BULK_OPTGEOM_DZ_optimized

_cell_length_a    37.298717
_cell_length_b    37.298717
_cell_length_c    37.298717
_cell_angle_alpha 109.471221
_cell_angle_beta  109.471221
_cell_angle_gamma 109.471221

_symmetry_space_group_name_H-M  'P 1'
_symmetry_Int_Tables_number     1

loop_
_symmetry_equiv_pos_as_xyz
  'x, y, z'

loop_
_atom_site_label
_atom_site_type_symbol
_atom_site_fract_x
_atom_site_fract_y
_atom_site_fract_z
H1       H      0.052268     0.009898     0.331256
H2       H      0.178642    -0.278989     0.168744
H3       H      0.447732    -0.221011    -0.042370
H4       H      0.321358     0.490102    -0.457630
H5       H      0.331256     0.052268     0.009898
H6       H      0.009898     0.331256     0.052268
H7       H     -0.457630     0.321358     0.490102
H8       H     -0.278989     0.168744     0.178642
H9       H      0.168744     0.178642    -0.278989
H10      H     -0.221011    -0.042370     0.447732
H11      H     -0.042370     0.447732    -0.221011
H12      H      0.490102    -0.457630     0.321358
H13      H     -0.490102    -0.447732    -0.168744
H14      H      0.221011    -0.321358    -0.331256
H15      H      0.278989    -0.052268     0.457630
H16      H     -0.009898    -0.178642     0.042370
H17      H     -0.447732    -0.168744    -0.490102
H18      H     -0.168744    -0.490102    -0.447732
H19      H     -0.178642     0.042370    -0.009898
H20      H     -0.331256     0.221011    -0.321358
H21      H     -0.321358    -0.331256     0.221011
H22      H      0.457630     0.278989    -0.052268
H23      H     -0.052268     0.457630     0.278989
H24      H      0.042370    -0.009898    -0.178642
H25      H     -0.078122    -0.088227     0.293953
H26      H      0.117819    -0.372075     0.206047
H27      H     -0.421878    -0.127925    -0.010105
H28      H      0.382181    -0.411773    -0.489895
H29      H      0.293953    -0.078122    -0.088227
H30      H     -0.088227     0.293953    -0.078122
H31      H     -0.489895     0.382181    -0.411773
H32      H     -0.372075     0.206047     0.117819
H33      H      0.206047     0.117819    -0.372075
H34      H     -0.127925    -0.010105    -0.421878
H35      H     -0.010105    -0.421878    -0.127925
H36      H     -0.411773    -0.489895     0.382181
H37      H      0.411773     0.421878    -0.206047
H38      H      0.127925    -0.382181    -0.293953
H39      H      0.372075     0.078122     0.489895
H40      H      0.088227    -0.117819     0.010105
H41      H      0.421878    -0.206047     0.411773
H42      H     -0.206047     0.411773     0.421878
H43      H     -0.117819     0.010105     0.088227
H44      H     -0.293953     0.127925    -0.382181
H45      H     -0.382181    -0.293953     0.127925
H46      H      0.489895     0.372075     0.078122
H47      H      0.078122     0.489895     0.372075
H48      H      0.010105     0.088227    -0.117819
H49      H     -0.027933    -0.046960     0.381851
H50      H      0.071188    -0.409785     0.118149
H51      H     -0.472067    -0.090215    -0.019027
H52      H      0.428812    -0.453040    -0.480973
H53      H      0.381851    -0.027933    -0.046960
H54      H     -0.046960     0.381851    -0.027933
H55      H     -0.480973     0.428812    -0.453040
H56      H     -0.409785     0.118149     0.071188
H57      H      0.118149     0.071188    -0.409785
H58      H     -0.090215    -0.019027    -0.472067
H59      H     -0.019027    -0.472067    -0.090215
H60      H     -0.453040    -0.480973     0.428812
H61      H      0.453040     0.472067    -0.118149
H62      H      0.090215    -0.428812    -0.381851
H63      H      0.409785     0.027933     0.480973
H64      H      0.046960    -0.071188     0.019027
H65      H      0.472067    -0.118149     0.453040
H66      H     -0.118149     0.453040     0.472067
H67      H     -0.071188     0.019027     0.046960
H68      H     -0.381851     0.090215    -0.428812
H69      H     -0.428812    -0.381851     0.090215
H70      H      0.480973     0.409785     0.027933
H71      H      0.027933     0.480973     0.409785
H72      H      0.019027     0.046960    -0.071188
H73      H     -0.028886    -0.051923     0.262893
H74      H      0.185184    -0.291779     0.237107
H75      H     -0.471114    -0.208221    -0.023037
H76      H      0.314816    -0.448077    -0.476963
H77      H      0.262893    -0.028886    -0.051923
H78      H     -0.051923     0.262893    -0.028886
H79      H     -0.476963     0.314816    -0.448077
H80      H     -0.291779     0.237107     0.185184
H81      H      0.237107     0.185184    -0.291779
H82      H     -0.208221    -0.023037    -0.471114
H83      H     -0.023037    -0.471114    -0.208221
H84      H     -0.448077    -0.476963     0.314816
H85      H      0.448077     0.471114    -0.237107
H86      H      0.208221    -0.314816    -0.262893
H87      H      0.291779     0.028886     0.476963
H88      H      0.051923    -0.185184     0.023037
H89      H      0.471114    -0.237107     0.448077
H90      H     -0.237107     0.448077     0.471114
H91      H     -0.185184     0.023037     0.051923
H92      H     -0.262893     0.208221    -0.314816
H93      H     -0.314816    -0.262893     0.208221
H94      H      0.476963     0.291779     0.028886
H95      H      0.028886     0.476963     0.291779
H96      H      0.023037     0.051923    -0.185184
C1       C      0.024989    -0.010462     0.332907
C2       C      0.156631    -0.307918     0.167093
C3       C      0.475011    -0.192082    -0.035451
C4       C      0.343369    -0.489538    -0.464549
C5       C      0.332907     0.024989    -0.010462
C6       C     -0.010462     0.332907     0.024989
C7       C     -0.464549     0.343369    -0.489538
C8       C     -0.307918     0.167093     0.156631
C9       C      0.167093     0.156631    -0.307918
C10      C     -0.192082    -0.035451     0.475011
C11      C     -0.035451     0.475011    -0.192082
C12      C     -0.489538    -0.464549     0.343369
C13      C      0.489538    -0.475011    -0.167093
C14      C      0.192082    -0.343369    -0.332907
C15      C      0.307918    -0.024989     0.464549
C16      C      0.010462    -0.156631     0.035451
C17      C     -0.475011    -0.167093     0.489538
C18      C     -0.167093     0.489538    -0.475011
C19      C     -0.156631     0.035451     0.010462
C20      C     -0.332907     0.192082    -0.343369
C21      C     -0.343369    -0.332907     0.192082
C22      C      0.464549     0.307918    -0.024989
C23      C     -0.024989     0.464549     0.307918
C24      C      0.035451     0.010462    -0.156631
C25      C      0.024673    -0.008045     0.371710
C26      C      0.120245    -0.347037     0.128290
C27      C      0.475327    -0.152963    -0.032718
C28      C      0.379755    -0.491955    -0.467282
C29      C      0.371710     0.024673    -0.008045
C30      C     -0.008045     0.371710     0.024673
C31      C     -0.467282     0.379755    -0.491955
C32      C     -0.347037     0.128290     0.120245
C33      C      0.128290     0.120245    -0.347037
C34      C     -0.152963    -0.032718     0.475327
C35      C     -0.032718     0.475327    -0.152963
C36      C     -0.491955    -0.467282     0.379755
C37      C      0.491955    -0.475327    -0.128290
C38      C      0.152963    -0.379755    -0.371710
C39      C      0.347037    -0.024673     0.467282
C40      C      0.008045    -0.120245     0.032718
C41      C     -0.475327    -0.128290     0.491955
C42      C     -0.128290     0.491955    -0.475327
C43      C     -0.120245     0.032718     0.008045
C44      C     -0.371710     0.152963    -0.379755
C45      C     -0.379755    -0.371710     0.152963
C46      C      0.467282     0.347037    -0.024673
C47      C     -0.024673     0.467282     0.347037
C48      C      0.032718     0.008045    -0.120245
C49      C     -0.017951    -0.042602     0.297099
C50      C      0.160299    -0.315049     0.202901
C51      C     -0.482049    -0.184951    -0.024652
C52      C      0.339701    -0.457398    -0.475348
C53      C      0.297099    -0.017951    -0.042602
C54      C     -0.042602     0.297099    -0.017951
C55      C     -0.475348     0.339701    -0.457398
C56      C     -0.315049     0.202901     0.160299
C57      C      0.202901     0.160299    -0.315049
C58      C     -0.184951    -0.024652    -0.482049
C59      C     -0.024652    -0.482049    -0.184951
C60      C     -0.457398    -0.475348     0.339701
C61      C      0.457398     0.482049    -0.202901
C62      C      0.184951    -0.339701    -0.297099
C63      C      0.315049     0.017951     0.475348
C64      C      0.042602    -0.160299     0.024652
C65      C      0.482049    -0.202901     0.457398
C66      C     -0.202901     0.457398     0.482049
C67      C     -0.160299     0.024652     0.042602
C68      C     -0.297099     0.184951    -0.339701
C69      C     -0.339701    -0.297099     0.184951
C70      C      0.475348     0.315049     0.017951
C71      C      0.017951     0.475348     0.315049
C72      C      0.024652     0.042602    -0.160299
Co1      Co    -0.023074     0.004284     0.341192
Co2      Co     0.163093    -0.364266     0.158808
Co3      Co    -0.476926    -0.135734     0.027358
Co4      Co     0.336907     0.495716     0.472642
Co5      Co     0.341192    -0.023074     0.004284
Co6      Co     0.004284     0.341192    -0.023074
Co7      Co     0.472642     0.336907     0.495716
Co8      Co    -0.364266     0.158808     0.163093
Co9      Co     0.158808     0.163093    -0.364266
Co10     Co    -0.135734     0.027358    -0.476926
Co11     Co     0.027358    -0.476926    -0.135734
Co12     Co     0.495716     0.472642     0.336907
Co13     Co    -0.495716     0.476926    -0.158808
Co14     Co     0.135734    -0.336907    -0.341192
Co15     Co     0.364266     0.023074    -0.472642
Co16     Co    -0.004284    -0.163093    -0.027358
Co17     Co     0.476926    -0.158808    -0.495716
Co18     Co    -0.158808    -0.495716     0.476926
Co19     Co    -0.163093    -0.027358    -0.004284
Co20     Co    -0.341192     0.135734    -0.336907
Co21     Co    -0.336907    -0.341192     0.135734
Co22     Co    -0.472642     0.364266     0.023074
Co23     Co     0.023074    -0.472642     0.364266
Co24     Co    -0.027358    -0.004284    -0.163093
H97      H      0.019785     0.085923     0.417435
H98      H      0.168488    -0.397651     0.082565
H99      H      0.480215    -0.102349     0.066139
H100     H      0.331512     0.414077     0.433861
H101     H      0.417435     0.019785     0.085923
H102     H      0.085923     0.417435     0.019785
H103     H      0.433861     0.331512     0.414077
H104     H     -0.397651     0.082565     0.168488
H105     H      0.082565     0.168488    -0.397651
H106     H     -0.102349     0.066139     0.480215
H107     H      0.066139     0.480215    -0.102349
H108     H      0.414077     0.433861     0.331512
H109     H     -0.414077    -0.480215    -0.082565
H110     H      0.102349    -0.331512    -0.417435
H111     H      0.397651    -0.019785    -0.433861
H112     H     -0.085923    -0.168488    -0.066139
H113     H     -0.480215    -0.082565    -0.414077
H114     H     -0.082565    -0.414077    -0.480215
H115     H     -0.168488    -0.066139    -0.085923
H116     H     -0.417435     0.102349    -0.331512
H117     H     -0.331512    -0.417435     0.102349
H118     H     -0.433861     0.397651    -0.019785
H119     H     -0.019785    -0.433861     0.397651
H120     H     -0.066139    -0.085923    -0.168488
C73      C     -0.043876    -0.062595     0.313384
C74      C      0.124021    -0.357260     0.186616
C75      C     -0.456124    -0.142740    -0.018719
C76      C      0.375979    -0.437405    -0.481281
C77      C      0.313384    -0.043876    -0.062595
C78      C     -0.062595     0.313384    -0.043876
C79      C     -0.481281     0.375979    -0.437405
C80      C     -0.357260     0.186616     0.124021
C81      C      0.186616     0.124021    -0.357260
C82      C     -0.142740    -0.018719    -0.456124
C83      C     -0.018719    -0.456124    -0.142740
C84      C     -0.437405    -0.481281     0.375979
C85      C      0.437405     0.456124    -0.186616
C86      C      0.142740    -0.375979    -0.313384
C87      C      0.357260     0.043876     0.481281
C88      C      0.062595    -0.124021     0.018719
C89      C      0.456124    -0.186616     0.437405
C90      C     -0.186616     0.437405     0.456124
C91      C     -0.124021     0.018719     0.062595
C92      C     -0.313384     0.142740    -0.375979
C93      C     -0.375979    -0.313384     0.142740
C94      C      0.481281     0.357260     0.043876
C95      C      0.043876     0.481281     0.357260
C96      C      0.018719     0.062595    -0.124021
H121     H      0.007616     0.085248     0.341540
H122     H      0.243708    -0.333924     0.158460
H123     H      0.492384    -0.166076     0.077632
H124     H      0.256292     0.414752     0.422368
H125     H      0.341540     0.007616     0.085248
H126     H      0.085248     0.341540     0.007616
H127     H      0.422368     0.256292     0.414752
H128     H     -0.333924     0.158460     0.243708
H129     H      0.158460     0.243708    -0.333924
H130     H     -0.166076     0.077632     0.492384
H131     H      0.077632     0.492384    -0.166076
H132     H      0.414752     0.422368     0.256292
H133     H     -0.414752    -0.492384    -0.158460
H134     H      0.166076    -0.256292    -0.341540
H135     H      0.333924    -0.007616    -0.422368
H136     H     -0.085248    -0.243708    -0.077632
H137     H     -0.492384    -0.158460    -0.414752
H138     H     -0.158460    -0.414752    -0.492384
H139     H     -0.243708    -0.077632    -0.085248
H140     H     -0.341540     0.166076    -0.256292
H141     H     -0.256292    -0.341540     0.166076
H142     H     -0.422368     0.333924    -0.007616
H143     H     -0.007616    -0.422368     0.333924
H144     H     -0.077632    -0.085248    -0.243708
C97      C     -0.058740     0.027861     0.311639
C98      C      0.216222    -0.370379     0.188361
C99      C     -0.441260    -0.129621     0.086601
C100     C      0.283778     0.472139     0.413399
C101     C      0.311639    -0.058740     0.027861
C102     C      0.027861     0.311639    -0.058740
C103     C      0.413399     0.283778     0.472139
C104     C     -0.370379     0.188361     0.216222
C105     C      0.188361     0.216222    -0.370379
C106     C     -0.129621     0.086601    -0.441260
C107     C      0.086601    -0.441260    -0.129621
C108     C      0.472139     0.413399     0.283778
C109     C     -0.472139     0.441260    -0.188361
C110     C      0.129621    -0.283778    -0.311639
C111     C      0.370379     0.058740    -0.413399
C112     C     -0.027861    -0.216222    -0.086601
C113     C      0.441260    -0.188361    -0.472139
C114     C     -0.188361    -0.472139     0.441260
C115     C     -0.216222    -0.086601    -0.027861
C116     C     -0.311639     0.129621    -0.283778
C117     C     -0.283778    -0.311639     0.129621
C118     C     -0.413399     0.370379     0.058740
C119     C      0.058740    -0.413399     0.370379
C120     C     -0.086601    -0.027861    -0.216222
C121     C     -0.009699     0.063615     0.385512
C122     C      0.178103    -0.395211     0.114488
C123     C     -0.490301    -0.104789     0.073314
C124     C      0.321897     0.436385     0.426686
C125     C      0.385512    -0.009699     0.063615
C126     C      0.063615     0.385512    -0.009699
C127     C      0.426686     0.321897     0.436385
C128     C     -0.395211     0.114488     0.178103
C129     C      0.114488     0.178103    -0.395211
C130     C     -0.104789     0.073314    -0.490301
C131     C      0.073314    -0.490301    -0.104789
C132     C      0.436385     0.426686     0.321897
C133     C     -0.436385     0.490301    -0.114488
C134     C      0.104789    -0.321897    -0.385512
C135     C      0.395211     0.009699    -0.426686
C136     C     -0.063615    -0.178103    -0.073314
C137     C      0.490301    -0.114488    -0.436385
C138     C     -0.114488    -0.436385     0.490301
C139     C     -0.178103    -0.073314    -0.063615
C140     C     -0.385512     0.104789    -0.321897
C141     C     -0.321897    -0.385512     0.104789
C142     C     -0.426686     0.395211     0.009699
C143     C      0.009699    -0.426686     0.395211
C144     C     -0.073314    -0.063615    -0.178103
C145     C     -0.016394     0.063537     0.345723
C146     C      0.217814    -0.362117     0.154277
C147     C     -0.483606    -0.137883     0.079931
C148     C      0.282186     0.436463     0.420069
C149     C      0.345723    -0.016394     0.063537
C150     C      0.063537     0.345723    -0.016394
C151     C      0.420069     0.282186     0.436463
C152     C     -0.362117     0.154277     0.217814
C153     C      0.154277     0.217814    -0.362117
C154     C     -0.137883     0.079931    -0.483606
C155     C      0.079931    -0.483606    -0.137883
C156     C      0.436463     0.420069     0.282186
C157     C     -0.436463     0.483606    -0.154277
C158     C      0.137883    -0.282186    -0.345723
C159     C      0.362117     0.016394    -0.420069
C160     C     -0.063537    -0.217814    -0.079931
C161     C      0.483606    -0.154277    -0.436463
C162     C     -0.154277    -0.436463     0.483606
C163     C     -0.217814    -0.079931    -0.063537
C164     C     -0.345723     0.137883    -0.282186
C165     C     -0.282186    -0.345723     0.137883
C166     C     -0.420069     0.362117     0.016394
C167     C      0.016394    -0.420069     0.362117
C168     C     -0.079931    -0.063537    -0.217814
H145     H     -0.073488     0.019202     0.277420
H146     H      0.241782    -0.350908     0.222580
H147     H     -0.426512    -0.149092     0.092690
H148     H      0.258218     0.480798     0.407310
H149     H      0.277420    -0.073488     0.019202
H150     H      0.019202     0.277420    -0.073488
H151     H      0.407310     0.258218     0.480798
H152     H     -0.350908     0.222580     0.241782
H153     H      0.222580     0.241782    -0.350908
H154     H     -0.149092     0.092690    -0.426512
H155     H      0.092690    -0.426512    -0.149092
H156     H      0.480798     0.407310     0.258218
H157     H     -0.480798     0.426512    -0.222580
H158     H      0.149092    -0.258218    -0.277420
H159     H      0.350908     0.073488    -0.407310
H160     H     -0.019202    -0.241782    -0.092690
H161     H      0.426512    -0.222580    -0.480798
H162     H     -0.222580    -0.480798     0.426512
H163     H     -0.241782    -0.092690    -0.019202
H164     H     -0.277420     0.149092    -0.258218
H165     H     -0.258218    -0.277420     0.149092
H166     H     -0.407310     0.350908     0.073488
H167     H      0.073488    -0.407310     0.350908
H168     H     -0.092690    -0.019202    -0.241782
H169     H      0.052090     0.014147     0.405011
H170     H      0.109136    -0.352921     0.094989
H171     H      0.447910    -0.147079    -0.037943
H172     H      0.390864     0.485853    -0.462057
H173     H      0.405011     0.052090     0.014147
H174     H      0.014147     0.405011     0.052090
H175     H     -0.462057     0.390864     0.485853
H176     H     -0.352921     0.094989     0.109136
H177     H      0.094989     0.109136    -0.352921
H178     H     -0.147079    -0.037943     0.447910
H179     H     -0.037943     0.447910    -0.147079
H180     H      0.485853    -0.462057     0.390864
H181     H     -0.485853    -0.447910    -0.094989
H182     H      0.147079    -0.390864    -0.405011
H183     H      0.352921    -0.052090     0.462057
H184     H     -0.014147    -0.109136     0.037943
H185     H     -0.447910    -0.094989    -0.485853
H186     H     -0.094989    -0.485853    -0.447910
H187     H     -0.109136     0.037943    -0.014147
H188     H     -0.405011     0.147079    -0.390864
H189     H     -0.390864    -0.405011     0.147079
H190     H      0.462057     0.352921    -0.052090
H191     H     -0.052090     0.462057     0.352921
H192     H      0.037943    -0.014147    -0.109136
O1       O      0.014659     0.062065     0.470516
O2       O      0.091549    -0.455857     0.029484
O3       O      0.485341    -0.044143     0.047406
O4       O      0.408451     0.437935     0.452594
O5       O      0.470516     0.014659     0.062065
O6       O      0.062065     0.470516     0.014659
O7       O      0.452594     0.408451     0.437935
O8       O     -0.455857     0.029484     0.091549
O9       O      0.029484     0.091549    -0.455857
O10      O     -0.044143     0.047406     0.485341
O11      O      0.047406     0.485341    -0.044143
O12      O      0.437935     0.452594     0.408451
O13      O     -0.437935    -0.485341    -0.029484
O14      O      0.044143    -0.408451    -0.470516
O15      O      0.455857    -0.014659    -0.452594
O16      O     -0.062065    -0.091549    -0.047406
O17      O     -0.485341    -0.029484    -0.437935
O18      O     -0.029484    -0.437935    -0.485341
O19      O     -0.091549    -0.047406    -0.062065
O20      O     -0.470516     0.044143    -0.408451
O21      O     -0.408451    -0.470516     0.044143
O22      O     -0.452594     0.455857    -0.014659
O23      O     -0.014659    -0.452594     0.455857
O24      O     -0.047406    -0.062065    -0.091549
H193     H     -0.159695    -0.091415     0.166953
H194     H      0.241633    -0.326648     0.333047
H195     H     -0.340305    -0.173352     0.068281
H196     H      0.258367    -0.408585     0.431719
H197     H      0.166953    -0.159695    -0.091415
H198     H     -0.091415     0.166953    -0.159695
H199     H      0.431719     0.258367    -0.408585
H200     H     -0.326648     0.333047     0.241633
H201     H      0.333047     0.241633    -0.326648
H202     H     -0.173352     0.068281    -0.340305
H203     H      0.068281    -0.340305    -0.173352
H204     H     -0.408585     0.431719     0.258367
H205     H      0.408585     0.340305    -0.333047
H206     H      0.173352    -0.258367    -0.166953
H207     H      0.326648     0.159695    -0.431719
H208     H      0.091415    -0.241633    -0.068281
H209     H      0.340305    -0.333047     0.408585
H210     H     -0.333047     0.408585     0.340305
H211     H     -0.241633    -0.068281     0.091415
H212     H     -0.166953     0.173352    -0.258367
H213     H     -0.258367    -0.166953     0.173352
H214     H     -0.431719     0.326648     0.159695
H215     H      0.159695    -0.431719     0.326648
H216     H     -0.068281     0.091415    -0.241633
H217     H     -0.167670    -0.063121     0.328965
H218     H      0.107915    -0.496634     0.171035
H219     H     -0.332330    -0.003366     0.104549
H220     H      0.392085    -0.436879     0.395451
H221     H      0.328965    -0.167670    -0.063121
H222     H     -0.063121     0.328965    -0.167670
H223     H      0.395451     0.392085    -0.436879
H224     H     -0.496634     0.171035     0.107915
H225     H      0.171035     0.107915    -0.496634
H226     H     -0.003366     0.104549    -0.332330
H227     H      0.104549    -0.332330    -0.003366
H228     H     -0.436879     0.395451     0.392085
H229     H      0.436879     0.332330    -0.171035
H230     H      0.003366    -0.392085    -0.328965
H231     H      0.496634     0.167670    -0.395451
H232     H      0.063121    -0.107915    -0.104549
H233     H      0.332330    -0.171035     0.436879
H234     H     -0.171035     0.436879     0.332330
H235     H     -0.107915    -0.104549     0.063121
H236     H     -0.328965     0.003366    -0.392085
H237     H     -0.392085    -0.328965     0.003366
H238     H     -0.395451     0.496634     0.167670
H239     H      0.167670    -0.395451     0.496634
H240     H     -0.104549     0.063121    -0.107915
C169     C     -0.017415    -0.041451     0.359399
C170     C      0.099151    -0.376814     0.140601
C171     C     -0.482585    -0.123186    -0.024036
C172     C      0.400849    -0.458549    -0.475964
C173     C      0.359399    -0.017415    -0.041451
C174     C     -0.041451     0.359399    -0.017415
C175     C     -0.475964     0.400849    -0.458549
C176     C     -0.376814     0.140601     0.099151
C177     C      0.140601     0.099151    -0.376814
C178     C     -0.123186    -0.024036    -0.482585
C179     C     -0.024036    -0.482585    -0.123186
C180     C     -0.458549    -0.475964     0.400849
C181     C      0.458549     0.482585    -0.140601
C182     C      0.123186    -0.400849    -0.359399
C183     C      0.376814     0.017415     0.475964
C184     C      0.041451    -0.099151     0.024036
C185     C      0.482585    -0.140601     0.458549
C186     C     -0.140601     0.458549     0.482585
C187     C     -0.099151     0.024036     0.041451
C188     C     -0.359399     0.123186    -0.400849
C189     C     -0.400849    -0.359399     0.123186
C190     C      0.475964     0.376814     0.017415
C191     C      0.017415     0.475964     0.376814
C192     C      0.024036     0.041451    -0.099151
H241     H     -0.264386    -0.098597     0.193608
H242     H      0.207795    -0.457994     0.306392
H243     H     -0.235614    -0.042006     0.165789
H244     H      0.292205    -0.401403     0.334211
H245     H      0.193608    -0.264386    -0.098597
H246     H     -0.098597     0.193608    -0.264386
H247     H      0.334211     0.292205    -0.401403
H248     H     -0.457994     0.306392     0.207795
H249     H      0.306392     0.207795    -0.457994
H250     H     -0.042006     0.165789    -0.235614
H251     H      0.165789    -0.235614    -0.042006
H252     H     -0.401403     0.334211     0.292205
H253     H      0.401403     0.235614    -0.306392
H254     H      0.042006    -0.292205    -0.193608
H255     H      0.457994     0.264386    -0.334211
H256     H      0.098597    -0.207795    -0.165789
H257     H      0.235614    -0.306392     0.401403
H258     H     -0.306392     0.401403     0.235614
H259     H     -0.207795    -0.165789     0.098597
H260     H     -0.193608     0.042006    -0.292205
H261     H     -0.292205    -0.193608     0.042006
H262     H     -0.334211     0.457994     0.264386
H263     H      0.264386    -0.334211     0.457994
H264     H     -0.165789     0.098597    -0.207795
H265     H     -0.211611    -0.057062     0.273153
H266     H      0.169785    -0.484764     0.226847
H267     H     -0.288389    -0.015236     0.154549
H268     H      0.330215    -0.442938     0.345451
H269     H      0.273153    -0.211611    -0.057062
H270     H     -0.057062     0.273153    -0.211611
H271     H      0.345451     0.330215    -0.442938
H272     H     -0.484764     0.226847     0.169785
H273     H      0.226847     0.169785    -0.484764
H274     H     -0.015236     0.154549    -0.288389
H275     H      0.154549    -0.288389    -0.015236
H276     H     -0.442938     0.345451     0.330215
H277     H      0.442938     0.288389    -0.226847
H278     H      0.015236    -0.330215    -0.273153
H279     H      0.484764     0.211611    -0.345451
H280     H      0.057062    -0.169785    -0.154549
H281     H      0.288389    -0.226847     0.442938
H282     H     -0.226847     0.442938     0.288389
H283     H     -0.169785    -0.154549     0.057062
H284     H     -0.273153     0.015236    -0.330215
H285     H     -0.330215    -0.273153     0.015236
H286     H     -0.345451     0.484764     0.211611
H287     H      0.211611    -0.345451     0.484764
H288     H     -0.154549     0.057062    -0.169785
H289     H     -0.115790    -0.022032     0.408757
H290     H      0.069211     0.475452     0.091243
H291     H     -0.384210     0.024548     0.093759
H292     H      0.430789    -0.477968     0.406241
H293     H      0.408757    -0.115790    -0.022032
H294     H     -0.022032     0.408757    -0.115790
H295     H      0.406241     0.430789    -0.477968
H296     H      0.475452     0.091243     0.069211
H297     H      0.091243     0.069211     0.475452
H298     H      0.024548     0.093759    -0.384210
H299     H      0.093759    -0.384210     0.024548
H300     H     -0.477968     0.406241     0.430789
H301     H      0.477968     0.384210    -0.091243
H302     H     -0.024548    -0.430789    -0.408757
H303     H     -0.475452     0.115790    -0.406241
H304     H      0.022032    -0.069211    -0.093759
H305     H      0.384210    -0.091243     0.477968
H306     H     -0.091243     0.477968     0.384210
H307     H     -0.069211    -0.093759     0.022032
H308     H     -0.408757    -0.024548    -0.430789
H309     H     -0.430789    -0.408757    -0.024548
H310     H     -0.406241    -0.475452     0.115790
H311     H      0.115790    -0.406241    -0.475452
H312     H     -0.093759     0.022032    -0.069211
H313     H     -0.107529    -0.052666     0.246183
H314     H      0.201151    -0.353712     0.253817
H315     H     -0.392471    -0.146288     0.054862
H316     H      0.298849    -0.447334     0.445138
H317     H      0.246183    -0.107529    -0.052666
H318     H     -0.052666     0.246183    -0.107529
H319     H      0.445138     0.298849    -0.447334
H320     H     -0.353712     0.253817     0.201151
H321     H      0.253817     0.201151    -0.353712
H322     H     -0.146288     0.054862    -0.392471
H323     H      0.054862    -0.392471    -0.146288
H324     H     -0.447334     0.445138     0.298849
H325     H      0.447334     0.392471    -0.253817
H326     H      0.146288    -0.298849    -0.246183
H327     H      0.353712     0.107529    -0.445138
H328     H      0.052666    -0.201151    -0.054862
H329     H      0.392471    -0.253817     0.447334
H330     H     -0.253817     0.447334     0.392471
H331     H     -0.201151    -0.054862     0.052666
H332     H     -0.246183     0.146288    -0.298849
H333     H     -0.298849    -0.246183     0.146288
H334     H     -0.445138     0.353712     0.107529
H335     H      0.107529    -0.445138     0.353712
H336     H     -0.054862     0.052666    -0.201151
C193     C     -0.229925    -0.089046     0.205143
C194     C      0.205811    -0.435068     0.294857
C195     C     -0.270075    -0.064932     0.140880
C196     C      0.294189    -0.410954     0.359120
C197     C      0.205143    -0.229925    -0.089046
C198     C     -0.089046     0.205143    -0.229925
C199     C      0.359120     0.294189    -0.410954
C200     C     -0.435068     0.294857     0.205811
C201     C      0.294857     0.205811    -0.435068
C202     C     -0.064932     0.140880    -0.270075
C203     C      0.140880    -0.270075    -0.064932
C204     C     -0.410954     0.359120     0.294189
C205     C      0.410954     0.270075    -0.294857
C206     C      0.064932    -0.294189    -0.205143
C207     C      0.435068     0.229925    -0.359120
C208     C      0.089046    -0.205811    -0.140880
C209     C      0.270075    -0.294857     0.410954
C210     C     -0.294857     0.410954     0.270075
C211     C     -0.205811    -0.140880     0.089046
C212     C     -0.205143     0.064932    -0.294189
C213     C     -0.294189    -0.205143     0.064932
C214     C     -0.359120     0.435068     0.229925
C215     C      0.229925    -0.359120     0.435068
C216     C     -0.140880     0.089046    -0.205811
C217     C     -0.155462    -0.051476     0.265748
C218     C      0.182776    -0.421210     0.234252
C219     C     -0.344538    -0.078790     0.103986
C220     C      0.317224    -0.448524     0.396014
C221     C      0.265748    -0.155462    -0.051476
C222     C     -0.051476     0.265748    -0.155462
C223     C      0.396014     0.317224    -0.448524
C224     C     -0.421210     0.234252     0.182776
C225     C      0.234252     0.182776    -0.421210
C226     C     -0.078790     0.103986    -0.344538
C227     C      0.103986    -0.344538    -0.078790
C228     C     -0.448524     0.396014     0.317224
C229     C      0.448524     0.344538    -0.234252
C230     C      0.078790    -0.317224    -0.265748
C231     C      0.421210     0.155462    -0.396014
C232     C      0.051476    -0.182776    -0.103986
C233     C      0.344538    -0.234252     0.448524
C234     C     -0.234252     0.448524     0.344538
C235     C     -0.182776    -0.103986     0.051476
C236     C     -0.265748     0.078790    -0.317224
C237     C     -0.317224    -0.265748     0.078790
C238     C     -0.396014     0.421210     0.155462
C239     C      0.155462    -0.396014     0.421210
C240     C     -0.103986     0.051476    -0.182776
C241     C     -0.216152    -0.098888     0.174204
C242     C      0.226909    -0.390355     0.325796
C243     C     -0.283848    -0.109645     0.117264
C244     C      0.273091    -0.401112     0.382736
C245     C      0.174204    -0.216152    -0.098888
C246     C     -0.098888     0.174204    -0.216152
C247     C      0.382736     0.273091    -0.401112
C248     C     -0.390355     0.325796     0.226909
C249     C      0.325796     0.226909    -0.390355
C250     C     -0.109645     0.117264    -0.283848
C251     C      0.117264    -0.283848    -0.109645
C252     C     -0.401112     0.382736     0.273091
C253     C      0.401112     0.283848    -0.325796
C254     C      0.109645    -0.273091    -0.174204
C255     C      0.390355     0.216152    -0.382736
C256     C      0.098888    -0.226909    -0.117264
C257     C      0.283848    -0.325796     0.401112
C258     C     -0.325796     0.401112     0.283848
C259     C     -0.226909    -0.117264     0.098888
C260     C     -0.174204     0.109645    -0.273091
C261     C     -0.273091    -0.174204     0.109645
C262     C     -0.382736     0.390355     0.216152
C263     C      0.216152    -0.382736     0.390355
C264     C     -0.117264     0.098888    -0.226909
C265     C     -0.171605    -0.084926     0.190033
C266     C      0.225041    -0.361638     0.309967
C267     C     -0.328395    -0.138362     0.086679
C268     C      0.274959    -0.415074     0.413321
C269     C      0.190033    -0.171605    -0.084926
C270     C     -0.084926     0.190033    -0.171605
C271     C      0.413321     0.274959    -0.415074
C272     C     -0.361638     0.309967     0.225041
C273     C      0.309967     0.225041    -0.361638
C274     C     -0.138362     0.086679    -0.328395
C275     C      0.086679    -0.328395    -0.138362
C276     C     -0.415074     0.413321     0.274959
C277     C      0.415074     0.328395    -0.309967
C278     C      0.138362    -0.274959    -0.190033
C279     C      0.361638     0.171605    -0.413321
C280     C      0.084926    -0.225041    -0.086679
C281     C      0.328395    -0.309967     0.415074
C282     C     -0.309967     0.415074     0.328395
C283     C     -0.225041    -0.086679     0.084926
C284     C     -0.190033     0.138362    -0.274959
C285     C     -0.274959    -0.190033     0.138362
C286     C     -0.413321     0.361638     0.171605
C287     C      0.171605    -0.413321     0.361638
C288     C     -0.086679     0.084926    -0.225041
C289     C     -0.062662     0.020186     0.406109
C290     C      0.114078    -0.468771     0.093891
C291     C     -0.437338    -0.031229     0.082849
C292     C      0.385922     0.479814     0.417151
C293     C      0.406109    -0.062662     0.020186
C294     C      0.020186     0.406109    -0.062662
C295     C      0.417151     0.385922     0.479814
C296     C     -0.468771     0.093891     0.114078
C297     C      0.093891     0.114078    -0.468771
C298     C     -0.031229     0.082849    -0.437338
C299     C      0.082849    -0.437338    -0.031229
C300     C      0.479814     0.417151     0.385922
C301     C     -0.479814     0.437338    -0.093891
C302     C      0.031229    -0.385922    -0.406109
C303     C      0.468771     0.062662    -0.417151
C304     C     -0.020186    -0.114078    -0.082849
C305     C      0.437338    -0.093891    -0.479814
C306     C     -0.093891    -0.479814     0.437338
C307     C     -0.114078    -0.082849    -0.020186
C308     C     -0.406109     0.031229    -0.385922
C309     C     -0.385922    -0.406109     0.031229
C310     C     -0.417151     0.468771     0.062662
C311     C      0.062662    -0.417151     0.468771
C312     C     -0.082849    -0.020186    -0.114078
C313     C     -0.081405     0.009052     0.331298
C314     C      0.177754    -0.412703     0.168702
C315     C     -0.418595    -0.087297     0.090457
C316     C      0.322246     0.490948     0.409543
C317     C      0.331298    -0.081405     0.009052
C318     C      0.009052     0.331298    -0.081405
C319     C      0.409543     0.322246     0.490948
C320     C     -0.412703     0.168702     0.177754
C321     C      0.168702     0.177754    -0.412703
C322     C     -0.087297     0.090457    -0.418595
C323     C      0.090457    -0.418595    -0.087297
C324     C      0.490948     0.409543     0.322246
C325     C     -0.490948     0.418595    -0.168702
C326     C      0.087297    -0.322246    -0.331298
C327     C      0.412703     0.081405    -0.409543
C328     C     -0.009052    -0.177754    -0.090457
C329     C      0.418595    -0.168702    -0.490948
C330     C     -0.168702    -0.490948     0.418595
C331     C     -0.177754    -0.090457    -0.009052
C332     C     -0.331298     0.087297    -0.322246
C333     C     -0.322246    -0.331298     0.087297
C334     C     -0.409543     0.412703     0.081405
C335     C      0.081405    -0.409543     0.412703
C336     C     -0.090457    -0.009052    -0.177754
C337     C     -0.200285    -0.065800     0.249864
C338     C      0.184336    -0.450148     0.250136
C339     C     -0.299715    -0.049852     0.134484
C340     C      0.315664    -0.434200     0.365516
C341     C      0.249864    -0.200285    -0.065800
C342     C     -0.065800     0.249864    -0.200285
C343     C      0.365516     0.315664    -0.434200
C344     C     -0.450148     0.250136     0.184336
C345     C      0.250136     0.184336    -0.450148
C346     C     -0.049852     0.134484    -0.299715
C347     C      0.134484    -0.299715    -0.049852
C348     C     -0.434200     0.365516     0.315664
C349     C      0.434200     0.299715    -0.250136
C350     C      0.049852    -0.315664    -0.249864
C351     C      0.450148     0.200285    -0.365516
C352     C      0.065800    -0.184336    -0.134484
C353     C      0.299715    -0.250136     0.434200
C354     C     -0.250136     0.434200     0.299715
C355     C     -0.184336    -0.134484     0.065800
C356     C     -0.249864     0.049852    -0.315664
C357     C     -0.315664    -0.249864     0.049852
C358     C     -0.365516     0.450148     0.200285
C359     C      0.200285    -0.365516     0.450148
C360     C     -0.134484     0.065800    -0.184336
C361     C     -0.124070    -0.026229     0.313185
C362     C      0.160586    -0.437255     0.186815
C363     C     -0.375930    -0.062745     0.097841
C364     C      0.339414    -0.473771     0.402159
C365     C      0.313185    -0.124070    -0.026229
C366     C     -0.026229     0.313185    -0.124070
C367     C      0.402159     0.339414    -0.473771
C368     C     -0.437255     0.186815     0.160586
C369     C      0.186815     0.160586    -0.437255
C370     C     -0.062745     0.097841    -0.375930
C371     C      0.097841    -0.375930    -0.062745
C372     C     -0.473771     0.402159     0.339414
C373     C      0.473771     0.375930    -0.186815
C374     C      0.062745    -0.339414    -0.313185
C375     C      0.437255     0.124070    -0.402159
C376     C      0.026229    -0.160586    -0.097841
C377     C      0.375930    -0.186815     0.473771
C378     C     -0.186815     0.473771     0.375930
C379     C     -0.160586    -0.097841     0.026229
C380     C     -0.313185     0.062745    -0.339414
C381     C     -0.339414    -0.313185     0.062745
C382     C     -0.402159     0.437255     0.124070
C383     C      0.124070    -0.402159     0.437255
C384     C     -0.097841     0.026229    -0.160586
C385     C     -0.141900    -0.062063     0.234847
C386     C      0.203089    -0.376747     0.265153
C387     C     -0.358100    -0.123253     0.079836
C388     C      0.296911    -0.437937     0.420164
C389     C      0.234847    -0.141900    -0.062063
C390     C     -0.062063     0.234847    -0.141900
C391     C      0.420164     0.296911    -0.437937
C392     C     -0.376747     0.265153     0.203089
C393     C      0.265153     0.203089    -0.376747
C394     C     -0.123253     0.079836    -0.358100
C395     C      0.079836    -0.358100    -0.123253
C396     C     -0.437937     0.420164     0.296911
C397     C      0.437937     0.358100    -0.265153
C398     C      0.123253    -0.296911    -0.234847
C399     C      0.376747     0.141900    -0.420164
C400     C      0.062063    -0.203089    -0.079836
C401     C      0.358100    -0.265153     0.437937
C402     C     -0.265153     0.437937     0.358100
C403     C     -0.203089    -0.079836     0.062063
C404     C     -0.234847     0.123253    -0.296911
C405     C     -0.296911    -0.234847     0.123253
C406     C     -0.420164     0.376747     0.141900
C407     C      0.141900    -0.420164     0.376747
C408     C     -0.079836     0.062063    -0.203089
C409     C     -0.105481    -0.012979     0.387450
C410     C      0.099570    -0.492931     0.112550
C411     C     -0.394519    -0.007069     0.092501
C412     C      0.400430    -0.487021     0.407499
C413     C      0.387450    -0.105481    -0.012979
C414     C     -0.012979     0.387450    -0.105481
C415     C      0.407499     0.400430    -0.487021
C416     C     -0.492931     0.112550     0.099570
C417     C      0.112550     0.099570    -0.492931
C418     C     -0.007069     0.092501    -0.394519
C419     C      0.092501    -0.394519    -0.007069
C420     C     -0.487021     0.407499     0.400430
C421     C      0.487021     0.394519    -0.112550
C422     C      0.007069    -0.400430    -0.387450
C423     C      0.492931     0.105481    -0.407499
C424     C      0.012979    -0.099570    -0.092501
C425     C      0.394519    -0.112550     0.487021
C426     C     -0.112550     0.487021     0.394519
C427     C     -0.099570    -0.092501     0.012979
C428     C     -0.387450     0.007069    -0.400430
C429     C     -0.400430    -0.387450     0.007069
C430     C     -0.407499     0.492931     0.105481
C431     C      0.105481    -0.407499     0.492931
C432     C     -0.092501     0.012979    -0.099570
C433     C     -0.050766     0.031597     0.377490
C434     C      0.154106    -0.428256     0.122510
C435     C     -0.449234    -0.071744     0.082363
C436     C      0.345894     0.468403     0.417637
C437     C      0.377490    -0.050766     0.031597
C438     C      0.031597     0.377490    -0.050766
C439     C      0.417637     0.345894     0.468403
C440     C     -0.428256     0.122510     0.154106
C441     C      0.122510     0.154106    -0.428256
C442     C     -0.071744     0.082363    -0.449234
C443     C      0.082363    -0.449234    -0.071744
C444     C      0.468403     0.417637     0.345894
C445     C     -0.468403     0.449234    -0.122510
C446     C      0.071744    -0.345894    -0.377490
C447     C      0.428256     0.050766    -0.417637
C448     C     -0.031597    -0.154106    -0.082363
C449     C      0.449234    -0.122510    -0.468403
C450     C     -0.122510    -0.468403     0.449234
C451     C     -0.154106    -0.082363    -0.031597
C452     C     -0.377490     0.071744    -0.345894
C453     C     -0.345894    -0.377490     0.071744
C454     C     -0.417637     0.428256     0.050766
C455     C      0.050766    -0.417637     0.428256
C456     C     -0.082363    -0.031597    -0.154106
B1       B     -0.029886     0.043399     0.455275
B2       B      0.088123    -0.485161     0.044725
B3       B     -0.470114    -0.014839     0.073285
B4       B      0.411877     0.456601     0.426715
B5       B      0.455275    -0.029886     0.043399
B6       B      0.043399     0.455275    -0.029886
B7       B      0.426715     0.411877     0.456601
B8       B     -0.485161     0.044725     0.088123
B9       B      0.044725     0.088123    -0.485161
B10      B     -0.014839     0.073285    -0.470114
B11      B      0.073285    -0.470114    -0.014839
B12      B      0.456601     0.426715     0.411877
B13      B     -0.456601     0.470114    -0.044725
B14      B      0.014839    -0.411877    -0.455275
B15      B      0.485161     0.029886    -0.426715
B16      B     -0.043399    -0.088123    -0.073285
B17      B      0.470114    -0.044725    -0.456601
B18      B     -0.044725    -0.456601     0.470114
B19      B     -0.088123    -0.073285    -0.043399
B20      B     -0.455275     0.014839    -0.411877
B21      B     -0.411877    -0.455275     0.014839
B22      B     -0.426715     0.485161     0.029886
B23      B      0.029886    -0.426715     0.485161
B24      B     -0.073285    -0.043399    -0.088123
C457     C     -0.135226    -0.035909     0.342203
C458     C      0.121888    -0.477428     0.157797
C459     C     -0.364774    -0.022572     0.099317
C460     C      0.378112    -0.464091     0.400683
C461     C      0.342203    -0.135226    -0.035909
C462     C     -0.035909     0.342203    -0.135226
C463     C      0.400683     0.378112    -0.464091
C464     C     -0.477428     0.157797     0.121888
C465     C      0.157797     0.121888    -0.477428
C466     C     -0.022572     0.099317    -0.364774
C467     C      0.099317    -0.364774    -0.022572
C468     C     -0.464091     0.400683     0.378112
C469     C      0.464091     0.364774    -0.157797
C470     C      0.022572    -0.378112    -0.342203
C471     C      0.477428     0.135226    -0.400683
C472     C      0.035909    -0.121888    -0.099317
C473     C      0.364774    -0.157797     0.464091
C474     C     -0.157797     0.464091     0.364774
C475     C     -0.121888    -0.099317     0.035909
C476     C     -0.342203     0.022572    -0.378112
C477     C     -0.378112    -0.342203     0.022572
C478     C     -0.400683     0.477428     0.135226
C479     C      0.135226    -0.400683     0.477428
C480     C     -0.099317     0.035909    -0.121888
C481     C     -0.375000     0.375000     0.250000
C482     C     -0.125000     0.125000    -0.250000
C483     C      0.250000    -0.375000     0.375000
C484     C      0.375000     0.250000    -0.375000
C485     C     -0.250000    -0.125000     0.125000
C486     C      0.125000    -0.250000    -0.125000
