data_MSUCOF-4-NiCp_BULK_OPTGEOM_DZ_optimized

_cell_length_a    34.172548
_cell_length_b    34.172548
_cell_length_c    34.172548
_cell_angle_alpha 109.471221
_cell_angle_beta  109.471221
_cell_angle_gamma 109.471221

_symmetry_space_group_name_H-M  'P 1'
_symmetry_Int_Tables_number     1

loop_
_symmetry_equiv_pos_as_xyz
  'x, y, z'

loop_
_atom_site_label
_atom_site_type_symbol
_atom_site_fract_x
_atom_site_fract_y
_atom_site_fract_z
H1       H      0.059780     0.081945     0.364237
H2       H      0.217708    -0.304458     0.135763
H3       H      0.440220    -0.195542     0.022166
H4       H      0.282292     0.418055     0.477834
H5       H      0.364237     0.059780     0.081945
H6       H      0.081945     0.364237     0.059780
H7       H      0.477834     0.282292     0.418055
H8       H     -0.304458     0.135763     0.217708
H9       H      0.135763     0.217708    -0.304458
H10      H     -0.195542     0.022166     0.440220
H11      H      0.022166     0.440220    -0.195542
H12      H      0.418055     0.477834     0.282292
H13      H     -0.418055    -0.440220    -0.135763
H14      H      0.195542    -0.282292    -0.364237
H15      H      0.304458    -0.059780    -0.477834
H16      H     -0.081945    -0.217708    -0.022166
H17      H     -0.440220    -0.135763    -0.418055
H18      H     -0.135763    -0.418055    -0.440220
H19      H     -0.217708    -0.022166    -0.081945
H20      H     -0.364237     0.195542    -0.282292
H21      H     -0.282292    -0.364237     0.195542
H22      H     -0.477834     0.304458    -0.059780
H23      H     -0.059780    -0.477834     0.304458
H24      H     -0.022166    -0.081945    -0.217708
H25      H     -0.037823    -0.071708     0.300565
H26      H      0.127727    -0.338389     0.199435
H27      H     -0.462177    -0.161611    -0.033885
H28      H      0.372273    -0.428292    -0.466115
H29      H      0.300565    -0.037823    -0.071708
H30      H     -0.071708     0.300565    -0.037823
H31      H     -0.466115     0.372273    -0.428292
H32      H     -0.338389     0.199435     0.127727
H33      H      0.199435     0.127727    -0.338389
H34      H     -0.161611    -0.033885    -0.462177
H35      H     -0.033885    -0.462177    -0.161611
H36      H     -0.428292    -0.466115     0.372273
H37      H      0.428292     0.462177    -0.199435
H38      H      0.161611    -0.372273    -0.300565
H39      H      0.338389     0.037823     0.466115
H40      H      0.071708    -0.127727     0.033885
H41      H      0.462177    -0.199435     0.428292
H42      H     -0.199435     0.428292     0.462177
H43      H     -0.127727     0.033885     0.071708
H44      H     -0.300565     0.161611    -0.372273
H45      H     -0.372273    -0.300565     0.161611
H46      H      0.466115     0.338389     0.037823
H47      H      0.037823     0.466115     0.338389
H48      H      0.033885     0.071708    -0.127727
H49      H      0.025636    -0.036785     0.393122
H50      H      0.070093    -0.367486     0.106878
H51      H      0.474364    -0.132514    -0.062420
H52      H      0.429907    -0.463215    -0.437580
H53      H      0.393122     0.025636    -0.036785
H54      H     -0.036785     0.393122     0.025636
H55      H     -0.437580     0.429907    -0.463215
H56      H     -0.367486     0.106878     0.070093
H57      H      0.106878     0.070093    -0.367486
H58      H     -0.132514    -0.062420     0.474364
H59      H     -0.062420     0.474364    -0.132514
H60      H     -0.463215    -0.437580     0.429907
H61      H      0.463215    -0.474364    -0.106878
H62      H      0.132514    -0.429907    -0.393122
H63      H      0.367486    -0.025636     0.437580
H64      H      0.036785    -0.070093     0.062420
H65      H     -0.474364    -0.106878     0.463215
H66      H     -0.106878     0.463215    -0.474364
H67      H     -0.070093     0.062420     0.036785
H68      H     -0.393122     0.132514    -0.429907
H69      H     -0.429907    -0.393122     0.132514
H70      H      0.437580     0.367486    -0.025636
H71      H     -0.025636     0.437580     0.367486
H72      H      0.062420     0.036785    -0.070093
H73      H     -0.019415     0.003733     0.285100
H74      H      0.218633    -0.304514     0.214900
H75      H     -0.480585    -0.195486     0.023147
H76      H      0.281367     0.496267     0.476853
H77      H      0.285100    -0.019415     0.003733
H78      H      0.003733     0.285100    -0.019415
H79      H      0.476853     0.281367     0.496267
H80      H     -0.304514     0.214900     0.218633
H81      H      0.214900     0.218633    -0.304514
H82      H     -0.195486     0.023147    -0.480585
H83      H      0.023147    -0.480585    -0.195486
H84      H      0.496267     0.476853     0.281367
H85      H     -0.496267     0.480585    -0.214900
H86      H      0.195486    -0.281367    -0.285100
H87      H      0.304514     0.019415    -0.476853
H88      H     -0.003733    -0.218633    -0.023147
H89      H      0.480585    -0.214900    -0.496267
H90      H     -0.214900    -0.496267     0.480585
H91      H     -0.218633    -0.023147    -0.003733
H92      H     -0.285100     0.195486    -0.281367
H93      H     -0.281367    -0.285100     0.195486
H94      H     -0.476853     0.304514     0.019415
H95      H      0.019415    -0.476853     0.304514
H96      H     -0.023147    -0.003733    -0.218633
C1       C      0.043763     0.046286     0.359464
C2       C      0.186822    -0.315701     0.140536
C3       C      0.456237    -0.184299     0.002523
C4       C      0.313178     0.453714     0.497477
C5       C      0.359464     0.043763     0.046286
C6       C      0.046286     0.359464     0.043763
C7       C      0.497477     0.313178     0.453714
C8       C     -0.315701     0.140536     0.186822
C9       C      0.140536     0.186822    -0.315701
C10      C     -0.184299     0.002523     0.456237
C11      C      0.002523     0.456237    -0.184299
C12      C      0.453714     0.497477     0.313178
C13      C     -0.453714    -0.456237    -0.140536
C14      C      0.184299    -0.313178    -0.359464
C15      C      0.315701    -0.043763    -0.497477
C16      C     -0.046286    -0.186822    -0.002523
C17      C     -0.456237    -0.140536    -0.453714
C18      C     -0.140536    -0.453714    -0.456237
C19      C     -0.186822    -0.002523    -0.046286
C20      C     -0.359464     0.184299    -0.313178
C21      C     -0.313178    -0.359464     0.184299
C22      C     -0.497477     0.315701    -0.043763
C23      C     -0.043763    -0.497477     0.315701
C24      C     -0.002523    -0.046286    -0.186822
C25      C      0.056990     0.033419     0.394751
C26      C      0.138668    -0.337761     0.105249
C27      C      0.443010    -0.162239    -0.023571
C28      C      0.361332     0.466581    -0.476429
C29      C      0.394751     0.056990     0.033419
C30      C      0.033419     0.394751     0.056990
C31      C     -0.476429     0.361332     0.466581
C32      C     -0.337761     0.105249     0.138668
C33      C      0.105249     0.138668    -0.337761
C34      C     -0.162239    -0.023571     0.443010
C35      C     -0.023571     0.443010    -0.162239
C36      C      0.466581    -0.476429     0.361332
C37      C     -0.466581    -0.443010    -0.105249
C38      C      0.162239    -0.361332    -0.394751
C39      C      0.337761    -0.056990     0.476429
C40      C     -0.033419    -0.138668     0.023571
C41      C     -0.443010    -0.105249    -0.466581
C42      C     -0.105249    -0.466581    -0.443010
C43      C     -0.138668     0.023571    -0.033419
C44      C     -0.394751     0.162239    -0.361332
C45      C     -0.361332    -0.394751     0.162239
C46      C      0.476429     0.337761    -0.056990
C47      C     -0.056990     0.476429     0.337761
C48      C      0.023571    -0.033419    -0.138668
C49      C      0.000989     0.005041     0.318083
C50      C      0.186957    -0.317094     0.181917
C51      C      0.499011    -0.182906     0.004051
C52      C      0.313043     0.494959     0.495949
C53      C      0.318083     0.000989     0.005041
C54      C      0.005041     0.318083     0.000989
C55      C      0.495949     0.313043     0.494959
C56      C     -0.317094     0.181917     0.186957
C57      C      0.181917     0.186957    -0.317094
C58      C     -0.182906     0.004051     0.499011
C59      C      0.004051     0.499011    -0.182906
C60      C      0.494959     0.495949     0.313043
C61      C     -0.494959    -0.499011    -0.181917
C62      C      0.182906    -0.313043    -0.318083
C63      C      0.317094    -0.000989    -0.495949
C64      C     -0.005041    -0.186957    -0.004051
C65      C     -0.499011    -0.181917    -0.494959
C66      C     -0.181917    -0.494959    -0.499011
C67      C     -0.186957    -0.004051    -0.005041
C68      C     -0.318083     0.182906    -0.313043
C69      C     -0.313043    -0.318083     0.182906
C70      C     -0.495949     0.317094    -0.000989
C71      C     -0.000989    -0.495949     0.317094
C72      C     -0.004051    -0.005041    -0.186957
Ni1      Ni    -0.013954     0.017195     0.372886
Ni2      Ni     0.144309    -0.386840     0.127114
Ni3      Ni    -0.486046    -0.113160     0.031150
Ni4      Ni     0.355691     0.482805     0.468850
Ni5      Ni     0.372886    -0.013954     0.017195
Ni6      Ni     0.017195     0.372886    -0.013954
Ni7      Ni     0.468850     0.355691     0.482805
Ni8      Ni    -0.386840     0.127114     0.144309
Ni9      Ni     0.127114     0.144309    -0.386840
Ni10     Ni    -0.113160     0.031150    -0.486046
Ni11     Ni     0.031150    -0.486046    -0.113160
Ni12     Ni     0.482805     0.468850     0.355691
Ni13     Ni    -0.482805     0.486046    -0.127114
Ni14     Ni     0.113160    -0.355691    -0.372886
Ni15     Ni     0.386840     0.013954    -0.468850
Ni16     Ni    -0.017195    -0.144309    -0.031150
Ni17     Ni     0.486046    -0.127114    -0.482805
Ni18     Ni    -0.127114    -0.482805     0.486046
Ni19     Ni    -0.144309    -0.031150    -0.017195
Ni20     Ni    -0.372886     0.113160    -0.355691
Ni21     Ni    -0.355691    -0.372886     0.113160
Ni22     Ni    -0.468850     0.386840     0.013954
Ni23     Ni     0.013954    -0.468850     0.386840
Ni24     Ni    -0.031150    -0.017195    -0.144309
H97      H      0.007336     0.042399     0.462600
H98      H      0.079800    -0.455264     0.037400
H99      H      0.492664    -0.044736     0.035064
H100     H      0.420200     0.457601     0.464936
H101     H      0.462600     0.007336     0.042399
H102     H      0.042399     0.462600     0.007336
H103     H      0.464936     0.420200     0.457601
H104     H     -0.455264     0.037400     0.079800
H105     H      0.037400     0.079800    -0.455264
H106     H     -0.044736     0.035064     0.492664
H107     H      0.035064     0.492664    -0.044736
H108     H      0.457601     0.464936     0.420200
H109     H     -0.457601    -0.492664    -0.037400
H110     H      0.044736    -0.420200    -0.462600
H111     H      0.455264    -0.007336    -0.464936
H112     H     -0.042399    -0.079800    -0.035064
H113     H     -0.492664    -0.037400    -0.457601
H114     H     -0.037400    -0.457601    -0.492664
H115     H     -0.079800    -0.035064    -0.042399
H116     H     -0.462600     0.044736    -0.420200
H117     H     -0.420200    -0.462600     0.044736
H118     H     -0.464936     0.455264    -0.007336
H119     H     -0.007336    -0.464936     0.455264
H120     H     -0.035064    -0.042399    -0.079800
C73      C     -0.008557    -0.035214     0.325818
C74      C      0.138967    -0.334375     0.174182
C75      C     -0.491443    -0.165625    -0.026658
C76      C      0.361033    -0.464786    -0.473342
C77      C      0.325818    -0.008557    -0.035214
C78      C     -0.035214     0.325818    -0.008557
C79      C     -0.473342     0.361033    -0.464786
C80      C     -0.334375     0.174182     0.138967
C81      C      0.174182     0.138967    -0.334375
C82      C     -0.165625    -0.026658    -0.491443
C83      C     -0.026658    -0.491443    -0.165625
C84      C     -0.464786    -0.473342     0.361033
C85      C      0.464786     0.491443    -0.174182
C86      C      0.165625    -0.361033    -0.325818
C87      C      0.334375     0.008557     0.473342
C88      C      0.035214    -0.138967     0.026658
C89      C      0.491443    -0.174182     0.464786
C90      C     -0.174182     0.464786     0.491443
C91      C     -0.138967     0.026658     0.035214
C92      C     -0.325818     0.165625    -0.361033
C93      C     -0.361033    -0.325818     0.165625
C94      C      0.473342     0.334375     0.008557
C95      C      0.008557     0.473342     0.334375
C96      C      0.026658     0.035214    -0.138967
H121     H     -0.010686     0.094172     0.422592
H122     H      0.171580    -0.433278     0.077408
H123     H     -0.489314    -0.066722     0.104858
H124     H      0.328420     0.405828     0.395142
H125     H      0.422592    -0.010686     0.094172
H126     H      0.094172     0.422592    -0.010686
H127     H      0.395142     0.328420     0.405828
H128     H     -0.433278     0.077408     0.171580
H129     H      0.077408     0.171580    -0.433278
H130     H     -0.066722     0.104858    -0.489314
H131     H      0.104858    -0.489314    -0.066722
H132     H      0.405828     0.395142     0.328420
H133     H     -0.405828     0.489314    -0.077408
H134     H      0.066722    -0.328420    -0.422592
H135     H      0.433278     0.010686    -0.395142
H136     H     -0.094172    -0.171580    -0.104858
H137     H      0.489314    -0.077408    -0.405828
H138     H     -0.077408    -0.405828     0.489314
H139     H     -0.171580    -0.104858    -0.094172
H140     H     -0.422592     0.066722    -0.328420
H141     H     -0.328420    -0.422592     0.066722
H142     H     -0.395142     0.433278     0.010686
H143     H      0.010686    -0.395142     0.433278
H144     H     -0.104858    -0.094172    -0.171580
C97      C     -0.073602     0.022490     0.360794
C98      C      0.161696    -0.434396     0.139206
C99      C     -0.426398    -0.065604     0.096093
C100     C      0.338304     0.477510     0.403907
C101     C      0.360794    -0.073602     0.022490
C102     C      0.022490     0.360794    -0.073602
C103     C      0.403907     0.338304     0.477510
C104     C     -0.434396     0.139206     0.161696
C105     C      0.139206     0.161696    -0.434396
C106     C     -0.065604     0.096093    -0.426398
C107     C      0.096093    -0.426398    -0.065604
C108     C      0.477510     0.403907     0.338304
C109     C     -0.477510     0.426398    -0.139206
C110     C      0.065604    -0.338304    -0.360794
C111     C      0.434396     0.073602    -0.403907
C112     C     -0.022490    -0.161696    -0.096093
C113     C      0.426398    -0.139206    -0.477510
C114     C     -0.139206    -0.477510     0.426398
C115     C     -0.161696    -0.096093    -0.022490
C116     C     -0.360794     0.065604    -0.338304
C117     C     -0.338304    -0.360794     0.065604
C118     C     -0.403907     0.434396     0.073602
C119     C      0.073602    -0.403907     0.434396
C120     C     -0.096093    -0.022490    -0.161696
C121     C     -0.023883     0.027735     0.428380
C122     C      0.099355    -0.452264     0.071620
C123     C     -0.476117    -0.047736     0.051619
C124     C      0.400645     0.472265     0.448381
C125     C      0.428380    -0.023883     0.027735
C126     C      0.027735     0.428380    -0.023883
C127     C      0.448381     0.400645     0.472265
C128     C     -0.452264     0.071620     0.099355
C129     C      0.071620     0.099355    -0.452264
C130     C     -0.047736     0.051619    -0.476117
C131     C      0.051619    -0.476117    -0.047736
C132     C      0.472265     0.448381     0.400645
C133     C     -0.472265     0.476117    -0.071620
C134     C      0.047736    -0.400645    -0.428380
C135     C      0.452264     0.023883    -0.448381
C136     C     -0.027735    -0.099355    -0.051619
C137     C      0.476117    -0.071620    -0.472265
C138     C     -0.071620    -0.472265     0.476117
C139     C     -0.099355    -0.051619    -0.027735
C140     C     -0.428380     0.047736    -0.400645
C141     C     -0.400645    -0.428380     0.047736
C142     C     -0.448381     0.452264     0.023883
C143     C      0.023883    -0.448381     0.452264
C144     C     -0.051619    -0.027735    -0.099355
C145     C     -0.033158     0.056013     0.407695
C146     C      0.148317    -0.440853     0.092305
C147     C     -0.466842    -0.059147     0.089171
C148     C      0.351683     0.443987     0.410829
C149     C      0.407695    -0.033158     0.056013
C150     C      0.056013     0.407695    -0.033158
C151     C      0.410829     0.351683     0.443987
C152     C     -0.440853     0.092305     0.148317
C153     C      0.092305     0.148317    -0.440853
C154     C     -0.059147     0.089171    -0.466842
C155     C      0.089171    -0.466842    -0.059147
C156     C      0.443987     0.410829     0.351683
C157     C     -0.443987     0.466842    -0.092305
C158     C      0.059147    -0.351683    -0.407695
C159     C      0.440853     0.033158    -0.410829
C160     C     -0.056013    -0.148317    -0.089171
C161     C      0.466842    -0.092305    -0.443987
C162     C     -0.092305    -0.443987     0.466842
C163     C     -0.148317    -0.089171    -0.056013
C164     C     -0.407695     0.059147    -0.351683
C165     C     -0.351683    -0.407695     0.059147
C166     C     -0.410829     0.440853     0.033158
C167     C      0.033158    -0.410829     0.440853
C168     C     -0.089171    -0.056013    -0.148317
H145     H     -0.089608     0.031392     0.334215
H146     H      0.197177    -0.423823     0.165785
H147     H     -0.410392    -0.076177     0.120999
H148     H      0.302823     0.468608     0.379001
H149     H      0.334215    -0.089608     0.031392
H150     H      0.031392     0.334215    -0.089608
H151     H      0.379001     0.302823     0.468608
H152     H     -0.423823     0.165785     0.197177
H153     H      0.165785     0.197177    -0.423823
H154     H     -0.076177     0.120999    -0.410392
H155     H      0.120999    -0.410392    -0.076177
H156     H      0.468608     0.379001     0.302823
H157     H     -0.468608     0.410392    -0.165785
H158     H      0.076177    -0.302823    -0.334215
H159     H      0.423823     0.089608    -0.379001
H160     H     -0.031392    -0.197177    -0.120999
H161     H      0.410392    -0.165785    -0.468608
H162     H     -0.165785    -0.468608     0.410392
H163     H     -0.197177    -0.120999    -0.031392
H164     H     -0.334215     0.076177    -0.302823
H165     H     -0.302823    -0.334215     0.076177
H166     H     -0.379001     0.423823     0.089608
H167     H      0.089608    -0.379001     0.423823
H168     H     -0.120999    -0.031392    -0.197177
H169     H      0.086079     0.056592     0.431782
H170     H      0.124810    -0.345704     0.068218
H171     H      0.413921    -0.154296    -0.029486
H172     H      0.375190     0.443408    -0.470514
H173     H      0.431782     0.086079     0.056592
H174     H      0.056592     0.431782     0.086079
H175     H     -0.470514     0.375190     0.443408
H176     H     -0.345704     0.068218     0.124810
H177     H      0.068218     0.124810    -0.345704
H178     H     -0.154296    -0.029486     0.413921
H179     H     -0.029486     0.413921    -0.154296
H180     H      0.443408    -0.470514     0.375190
H181     H     -0.443408    -0.413921    -0.068218
H182     H      0.154296    -0.375190    -0.431782
H183     H      0.345704    -0.086079     0.470514
H184     H     -0.056592    -0.124810     0.029486
H185     H     -0.413921    -0.068218    -0.443408
H186     H     -0.068218    -0.443408    -0.413921
H187     H     -0.124810     0.029486    -0.056592
H188     H     -0.431782     0.154296    -0.375190
H189     H     -0.375190    -0.431782     0.154296
H190     H      0.470514     0.345704    -0.086079
H191     H     -0.086079     0.470514     0.345704
H192     H      0.029486    -0.056592    -0.124810
O1       O      0.003201    -0.039757     0.459144
O2       O      0.001099    -0.455943     0.040856
O3       O      0.496799    -0.044057    -0.042958
O4       O      0.498901    -0.460243    -0.457042
O5       O      0.459144     0.003201    -0.039757
O6       O     -0.039757     0.459144     0.003201
O7       O     -0.457042     0.498901    -0.460243
O8       O     -0.455943     0.040856     0.001099
O9       O      0.040856     0.001099    -0.455943
O10      O     -0.044057    -0.042958     0.496799
O11      O     -0.042958     0.496799    -0.044057
O12      O     -0.460243    -0.457042     0.498901
O13      O      0.460243    -0.496799    -0.040856
O14      O      0.044057    -0.498901    -0.459144
O15      O      0.455943    -0.003201     0.457042
O16      O      0.039757    -0.001099     0.042958
O17      O     -0.496799    -0.040856     0.460243
O18      O     -0.040856     0.460243    -0.496799
O19      O     -0.001099     0.042958     0.039757
O20      O     -0.459144     0.044057    -0.498901
O21      O     -0.498901    -0.459144     0.044057
O22      O      0.457042     0.455943    -0.003201
O23      O     -0.003201     0.457042     0.455943
O24      O      0.042958     0.039757    -0.001099
H193     H     -0.149877    -0.075230     0.185999
H194     H      0.238770    -0.335877     0.314001
H195     H     -0.350123    -0.164123     0.074647
H196     H      0.261230    -0.424770     0.425353
H197     H      0.185999    -0.149877    -0.075230
H198     H     -0.075230     0.185999    -0.149877
H199     H      0.425353     0.261230    -0.424770
H200     H     -0.335877     0.314001     0.238770
H201     H      0.314001     0.238770    -0.335877
H202     H     -0.164123     0.074647    -0.350123
H203     H      0.074647    -0.350123    -0.164123
H204     H     -0.424770     0.425353     0.261230
H205     H      0.424770     0.350123    -0.314001
H206     H      0.164123    -0.261230    -0.185999
H207     H      0.335877     0.149877    -0.425353
H208     H      0.075230    -0.238770    -0.074647
H209     H      0.350123    -0.314001     0.424770
H210     H     -0.314001     0.424770     0.350123
H211     H     -0.238770    -0.074647     0.075230
H212     H     -0.185999     0.164123    -0.261230
H213     H     -0.261230    -0.185999     0.164123
H214     H     -0.425353     0.335877     0.149877
H215     H      0.149877    -0.425353     0.335877
H216     H     -0.074647     0.075230    -0.238770
H217     H     -0.191368    -0.133090     0.311161
H218     H      0.055749     0.497472     0.188839
H219     H     -0.308632     0.002528     0.058277
H220     H      0.444251    -0.366910     0.441723
H221     H      0.311161    -0.191368    -0.133090
H222     H     -0.133090     0.311161    -0.191368
H223     H      0.441723     0.444251    -0.366910
H224     H      0.497472     0.188839     0.055749
H225     H      0.188839     0.055749     0.497472
H226     H      0.002528     0.058277    -0.308632
H227     H      0.058277    -0.308632     0.002528
H228     H     -0.366910     0.441723     0.444251
H229     H      0.366910     0.308632    -0.188839
H230     H     -0.002528    -0.444251    -0.311161
H231     H     -0.497472     0.191368    -0.441723
H232     H      0.133090    -0.055749    -0.058277
H233     H      0.308632    -0.188839     0.366910
H234     H     -0.188839     0.366910     0.308632
H235     H     -0.055749    -0.058277     0.133090
H236     H     -0.311161    -0.002528    -0.444251
H237     H     -0.444251    -0.311161    -0.002528
H238     H     -0.441723    -0.497472     0.191368
H239     H      0.191368    -0.441723    -0.497472
H240     H     -0.058277     0.133090    -0.055749
C169     C      0.024816    -0.017242     0.373794
C170     C      0.108965    -0.348978     0.126206
C171     C      0.475184    -0.151022    -0.042057
C172     C      0.391035    -0.482758    -0.457943
C173     C      0.373794     0.024816    -0.017242
C174     C     -0.017242     0.373794     0.024816
C175     C     -0.457943     0.391035    -0.482758
C176     C     -0.348978     0.126206     0.108965
C177     C      0.126206     0.108965    -0.348978
C178     C     -0.151022    -0.042057     0.475184
C179     C     -0.042057     0.475184    -0.151022
C180     C     -0.482758    -0.457943     0.391035
C181     C      0.482758    -0.475184    -0.126206
C182     C      0.151022    -0.391035    -0.373794
C183     C      0.348978    -0.024816     0.457943
C184     C      0.017242    -0.108965     0.042057
C185     C     -0.475184    -0.126206     0.482758
C186     C     -0.126206     0.482758    -0.475184
C187     C     -0.108965     0.042057     0.017242
C188     C     -0.373794     0.151022    -0.391035
C189     C     -0.391035    -0.373794     0.151022
C190     C      0.457943     0.348978    -0.024816
C191     C     -0.024816     0.457943     0.348978
C192     C      0.042057     0.017242    -0.108965
H241     H     -0.282567    -0.119624     0.186644
H242     H      0.193733    -0.469211     0.313356
H243     H     -0.217433    -0.030789     0.162944
H244     H      0.306267    -0.380376     0.337056
H245     H      0.186644    -0.282567    -0.119624
H246     H     -0.119624     0.186644    -0.282567
H247     H      0.337056     0.306267    -0.380376
H248     H     -0.469211     0.313356     0.193733
H249     H      0.313356     0.193733    -0.469211
H250     H     -0.030789     0.162944    -0.217433
H251     H      0.162944    -0.217433    -0.030789
H252     H     -0.380376     0.337056     0.306267
H253     H      0.380376     0.217433    -0.313356
H254     H      0.030789    -0.306267    -0.186644
H255     H      0.469211     0.282567    -0.337056
H256     H      0.119624    -0.193733    -0.162944
H257     H      0.217433    -0.313356     0.380376
H258     H     -0.313356     0.380376     0.217433
H259     H     -0.193733    -0.162944     0.119624
H260     H     -0.186644     0.030789    -0.306267
H261     H     -0.306267    -0.186644     0.030789
H262     H     -0.337056     0.469211     0.282567
H263     H      0.282567    -0.337056     0.469211
H264     H     -0.162944     0.119624    -0.193733
H265     H     -0.239403    -0.095853     0.272598
H266     H      0.131549     0.487999     0.227402
H267     H     -0.260597     0.012001     0.143550
H268     H      0.368451    -0.404147     0.356450
H269     H      0.272598    -0.239403    -0.095853
H270     H     -0.095853     0.272598    -0.239403
H271     H      0.356450     0.368451    -0.404147
H272     H      0.487999     0.227402     0.131549
H273     H      0.227402     0.131549     0.487999
H274     H      0.012001     0.143550    -0.260597
H275     H      0.143550    -0.260597     0.012001
H276     H     -0.404147     0.356450     0.368451
H277     H      0.404147     0.260597    -0.227402
H278     H     -0.012001    -0.368451    -0.272598
H279     H     -0.487999     0.239403    -0.356450
H280     H      0.095853    -0.131549    -0.143550
H281     H      0.260597    -0.227402     0.404147
H282     H     -0.227402     0.404147     0.260597
H283     H     -0.131549    -0.143550     0.095853
H284     H     -0.272598    -0.012001    -0.368451
H285     H     -0.368451    -0.272598    -0.012001
H286     H     -0.356450    -0.487999     0.239403
H287     H      0.239403    -0.356450    -0.487999
H288     H     -0.143550     0.095853    -0.131549
H289     H     -0.138234    -0.127329     0.384922
H290     H     -0.012251     0.476844     0.115078
H291     H     -0.361766     0.023156     0.010905
H292     H     -0.487749    -0.372671     0.489095
H293     H      0.384922    -0.138234    -0.127329
H294     H     -0.127329     0.384922    -0.138234
H295     H      0.489095    -0.487749    -0.372671
H296     H      0.476844     0.115078    -0.012251
H297     H      0.115078    -0.012251     0.476844
H298     H      0.023156     0.010905    -0.361766
H299     H      0.010905    -0.361766     0.023156
H300     H     -0.372671     0.489095    -0.487749
H301     H      0.372671     0.361766    -0.115078
H302     H     -0.023156     0.487749    -0.384922
H303     H     -0.476844     0.138234    -0.489095
H304     H      0.127329     0.012251    -0.010905
H305     H      0.361766    -0.115078     0.372671
H306     H     -0.115078     0.372671     0.361766
H307     H      0.012251    -0.010905     0.127329
H308     H     -0.384922    -0.023156     0.487749
H309     H      0.487749    -0.384922    -0.023156
H310     H     -0.489095    -0.476844     0.138234
H311     H      0.138234    -0.489095    -0.476844
H312     H     -0.010905     0.127329     0.012251
H313     H     -0.106502    -0.048278     0.272770
H314     H      0.178952    -0.379272     0.227230
H315     H     -0.393498    -0.120728     0.058224
H316     H      0.321048    -0.451722     0.441776
H317     H      0.272770    -0.106502    -0.048278
H318     H     -0.048278     0.272770    -0.106502
H319     H      0.441776     0.321048    -0.451722
H320     H     -0.379272     0.227230     0.178952
H321     H      0.227230     0.178952    -0.379272
H322     H     -0.120728     0.058224    -0.393498
H323     H      0.058224    -0.393498    -0.120728
H324     H     -0.451722     0.441776     0.321048
H325     H      0.451722     0.393498    -0.227230
H326     H      0.120728    -0.321048    -0.272770
H327     H      0.379272     0.106502    -0.441776
H328     H      0.048278    -0.178952    -0.058224
H329     H      0.393498    -0.227230     0.451722
H330     H     -0.227230     0.451722     0.393498
H331     H     -0.178952    -0.058224     0.048278
H332     H     -0.272770     0.120728    -0.321048
H333     H     -0.321048    -0.272770     0.120728
H334     H     -0.441776     0.379272     0.106502
H335     H      0.106502    -0.441776     0.379272
H336     H     -0.058224     0.048278    -0.178952
C193     C     -0.243982    -0.105575     0.205292
C194     C      0.189133    -0.449274     0.294708
C195     C     -0.256018    -0.050726     0.138407
C196     C      0.310867    -0.394425     0.361593
C197     C      0.205292    -0.243982    -0.105575
C198     C     -0.105575     0.205292    -0.243982
C199     C      0.361593     0.310867    -0.394425
C200     C     -0.449274     0.294708     0.189133
C201     C      0.294708     0.189133    -0.449274
C202     C     -0.050726     0.138407    -0.256018
C203     C      0.138407    -0.256018    -0.050726
C204     C     -0.394425     0.361593     0.310867
C205     C      0.394425     0.256018    -0.294708
C206     C      0.050726    -0.310867    -0.205292
C207     C      0.449274     0.243982    -0.361593
C208     C      0.105575    -0.189133    -0.138407
C209     C      0.256018    -0.294708     0.394425
C210     C     -0.294708     0.394425     0.256018
C211     C     -0.189133    -0.138407     0.105575
C212     C     -0.205292     0.050726    -0.310867
C213     C     -0.310867    -0.205292     0.050726
C214     C     -0.361593     0.449274     0.243982
C215     C      0.243982    -0.361593     0.449274
C216     C     -0.138407     0.105575    -0.189133
C217     C     -0.170105    -0.072417     0.277712
C218     C      0.149871    -0.447817     0.222288
C219     C     -0.329895    -0.052183     0.097688
C220     C      0.350129    -0.427583     0.402312
C221     C      0.277712    -0.170105    -0.072417
C222     C     -0.072417     0.277712    -0.170105
C223     C      0.402312     0.350129    -0.427583
C224     C     -0.447817     0.222288     0.149871
C225     C      0.222288     0.149871    -0.447817
C226     C     -0.052183     0.097688    -0.329895
C227     C      0.097688    -0.329895    -0.052183
C228     C     -0.427583     0.402312     0.350129
C229     C      0.427583     0.329895    -0.222288
C230     C      0.052183    -0.350129    -0.277712
C231     C      0.447817     0.170105    -0.402312
C232     C      0.072417    -0.149871    -0.097688
C233     C      0.329895    -0.222288     0.427583
C234     C     -0.222288     0.427583     0.329895
C235     C     -0.149871    -0.097688     0.072417
C236     C     -0.277712     0.052183    -0.350129
C237     C     -0.350129    -0.277712     0.052183
C238     C     -0.402312     0.447817     0.170105
C239     C      0.170105    -0.402312     0.447817
C240     C     -0.097688     0.072417    -0.149871
C241     C     -0.219823    -0.102561     0.179354
C242     C      0.218085    -0.399178     0.320646
C243     C     -0.280177    -0.100822     0.117262
C244     C      0.281915    -0.397439     0.382738
C245     C      0.179354    -0.219823    -0.102561
C246     C     -0.102561     0.179354    -0.219823
C247     C      0.382738     0.281915    -0.397439
C248     C     -0.399178     0.320646     0.218085
C249     C      0.320646     0.218085    -0.399178
C250     C     -0.100822     0.117262    -0.280177
C251     C      0.117262    -0.280177    -0.100822
C252     C     -0.397439     0.382738     0.281915
C253     C      0.397439     0.280177    -0.320646
C254     C      0.100822    -0.281915    -0.179354
C255     C      0.399178     0.219823    -0.382738
C256     C      0.102561    -0.218085    -0.117262
C257     C      0.280177    -0.320646     0.397439
C258     C     -0.320646     0.397439     0.280177
C259     C     -0.218085    -0.117262     0.102561
C260     C     -0.179354     0.100822    -0.281915
C261     C     -0.281915    -0.179354     0.100822
C262     C     -0.382738     0.399178     0.219823
C263     C      0.219823    -0.382738     0.399178
C264     C     -0.117262     0.102561    -0.218085
C265     C     -0.169914    -0.079856     0.204620
C266     C      0.215524    -0.374534     0.295380
C267     C     -0.330086    -0.125466     0.090058
C268     C      0.284476    -0.420144     0.409942
C269     C      0.204620    -0.169914    -0.079856
C270     C     -0.079856     0.204620    -0.169914
C271     C      0.409942     0.284476    -0.420144
C272     C     -0.374534     0.295380     0.215524
C273     C      0.295380     0.215524    -0.374534
C274     C     -0.125466     0.090058    -0.330086
C275     C      0.090058    -0.330086    -0.125466
C276     C     -0.420144     0.409942     0.284476
C277     C      0.420144     0.330086    -0.295380
C278     C      0.125466    -0.284476    -0.204620
C279     C      0.374534     0.169914    -0.409942
C280     C      0.079856    -0.215524    -0.090058
C281     C      0.330086    -0.295380     0.420144
C282     C     -0.295380     0.420144     0.330086
C283     C     -0.215524    -0.090058     0.079856
C284     C     -0.204620     0.125466    -0.284476
C285     C     -0.284476    -0.204620     0.125466
C286     C     -0.409942     0.374534     0.169914
C287     C      0.169914    -0.409942     0.374534
C288     C     -0.090058     0.079856    -0.215524
C289     C     -0.080464    -0.057243     0.411273
C290     C      0.031484    -0.491737     0.088727
C291     C     -0.419536    -0.008263     0.023221
C292     C      0.468516    -0.442757     0.476779
C293     C      0.411273    -0.080464    -0.057243
C294     C     -0.057243     0.411273    -0.080464
C295     C      0.476779     0.468516    -0.442757
C296     C     -0.491737     0.088727     0.031484
C297     C      0.088727     0.031484    -0.491737
C298     C     -0.008263     0.023221    -0.419536
C299     C      0.023221    -0.419536    -0.008263
C300     C     -0.442757     0.476779     0.468516
C301     C      0.442757     0.419536    -0.088727
C302     C      0.008263    -0.468516    -0.411273
C303     C      0.491737     0.080464    -0.476779
C304     C      0.057243    -0.031484    -0.023221
C305     C      0.419536    -0.088727     0.442757
C306     C     -0.088727     0.442757     0.419536
C307     C     -0.031484    -0.023221     0.057243
C308     C     -0.411273     0.008263    -0.468516
C309     C     -0.468516    -0.411273     0.008263
C310     C     -0.476779     0.491737     0.080464
C311     C      0.080464    -0.476779     0.491737
C312     C     -0.023221     0.057243    -0.031484
C313     C     -0.098937    -0.022045     0.360297
C314     C      0.117658    -0.459233     0.139703
C315     C     -0.401063    -0.040767     0.076891
C316     C      0.382342    -0.477955     0.423109
C317     C      0.360297    -0.098937    -0.022045
C318     C     -0.022045     0.360297    -0.098937
C319     C      0.423109     0.382342    -0.477955
C320     C     -0.459233     0.139703     0.117658
C321     C      0.139703     0.117658    -0.459233
C322     C     -0.040767     0.076891    -0.401063
C323     C      0.076891    -0.401063    -0.040767
C324     C     -0.477955     0.423109     0.382342
C325     C      0.477955     0.401063    -0.139703
C326     C      0.040767    -0.382342    -0.360297
C327     C      0.459233     0.098937    -0.423109
C328     C      0.022045    -0.117658    -0.076891
C329     C      0.401063    -0.139703     0.477955
C330     C     -0.139703     0.477955     0.401063
C331     C     -0.117658    -0.076891     0.022045
C332     C     -0.360297     0.040767    -0.382342
C333     C     -0.382342    -0.360297     0.040767
C334     C     -0.423109     0.459233     0.098937
C335     C      0.098937    -0.423109     0.459233
C336     C     -0.076891     0.022045    -0.117658
C337     C     -0.219871    -0.091971     0.253348
C338     C      0.154682    -0.473219     0.246652
C339     C     -0.280129    -0.026781     0.127900
C340     C      0.345318    -0.408029     0.372100
C341     C      0.253348    -0.219871    -0.091971
C342     C     -0.091971     0.253348    -0.219871
C343     C      0.372100     0.345318    -0.408029
C344     C     -0.473219     0.246652     0.154682
C345     C      0.246652     0.154682    -0.473219
C346     C     -0.026781     0.127900    -0.280129
C347     C      0.127900    -0.280129    -0.026781
C348     C     -0.408029     0.372100     0.345318
C349     C      0.408029     0.280129    -0.246652
C350     C      0.026781    -0.345318    -0.253348
C351     C      0.473219     0.219871    -0.372100
C352     C      0.091971    -0.154682    -0.127900
C353     C      0.280129    -0.246652     0.408029
C354     C     -0.246652     0.408029     0.280129
C355     C     -0.154682    -0.127900     0.091971
C356     C     -0.253348     0.026781    -0.345318
C357     C     -0.345318    -0.253348     0.026781
C358     C     -0.372100     0.473219     0.219871
C359     C      0.219871    -0.372100     0.473219
C360     C     -0.127900     0.091971    -0.154682
C361     C     -0.142859    -0.063697     0.326306
C362     C      0.109997    -0.469165     0.173694
C363     C     -0.357141    -0.030835     0.079163
C364     C      0.390003    -0.436303     0.420837
C365     C      0.326306    -0.142859    -0.063697
C366     C     -0.063697     0.326306    -0.142859
C367     C      0.420837     0.390003    -0.436303
C368     C     -0.469165     0.173694     0.109997
C369     C      0.173694     0.109997    -0.469165
C370     C     -0.030835     0.079163    -0.357141
C371     C      0.079163    -0.357141    -0.030835
C372     C     -0.436303     0.420837     0.390003
C373     C      0.436303     0.357141    -0.173694
C374     C      0.030835    -0.390003    -0.326306
C375     C      0.469165     0.142859    -0.420837
C376     C      0.063697    -0.109997    -0.079163
C377     C      0.357141    -0.173694     0.436303
C378     C     -0.173694     0.436303     0.357141
C379     C     -0.109997    -0.079163     0.063697
C380     C     -0.326306     0.030835    -0.390003
C381     C     -0.390003    -0.326306     0.030835
C382     C     -0.420837     0.469165     0.142859
C383     C      0.142859    -0.420837     0.469165
C384     C     -0.079163     0.063697    -0.109997
C385     C     -0.145447    -0.064688     0.253208
C386     C      0.182104    -0.398655     0.246792
C387     C     -0.354553    -0.101345     0.080759
C388     C      0.317896    -0.435312     0.419241
C389     C      0.253208    -0.145447    -0.064688
C390     C     -0.064688     0.253208    -0.145447
C391     C      0.419241     0.317896    -0.435312
C392     C     -0.398655     0.246792     0.182104
C393     C      0.246792     0.182104    -0.398655
C394     C     -0.101345     0.080759    -0.354553
C395     C      0.080759    -0.354553    -0.101345
C396     C     -0.435312     0.419241     0.317896
C397     C      0.435312     0.354553    -0.246792
C398     C      0.101345    -0.317896    -0.253208
C399     C      0.398655     0.145447    -0.419241
C400     C      0.064688    -0.182104    -0.080759
C401     C      0.354553    -0.246792     0.435312
C402     C     -0.246792     0.435312     0.354553
C403     C     -0.182104    -0.080759     0.064688
C404     C     -0.253208     0.101345    -0.317896
C405     C     -0.317896    -0.253208     0.101345
C406     C     -0.419241     0.398655     0.145447
C407     C      0.145447    -0.419241     0.398655
C408     C     -0.080759     0.064688    -0.182104
C409     C     -0.126774    -0.097143     0.378873
C410     C      0.023984     0.494353     0.121127
C411     C     -0.373226     0.005647     0.029631
C412     C      0.476016    -0.402857     0.470369
C413     C      0.378873    -0.126774    -0.097143
C414     C     -0.097143     0.378873    -0.126774
C415     C      0.470369     0.476016    -0.402857
C416     C      0.494353     0.121127     0.023984
C417     C      0.121127     0.023984     0.494353
C418     C      0.005647     0.029631    -0.373226
C419     C      0.029631    -0.373226     0.005647
C420     C     -0.402857     0.470369     0.476016
C421     C      0.402857     0.373226    -0.121127
C422     C     -0.005647    -0.476016    -0.378873
C423     C     -0.494353     0.126774    -0.470369
C424     C      0.097143    -0.023984    -0.029631
C425     C      0.373226    -0.121127     0.402857
C426     C     -0.121127     0.402857     0.373226
C427     C     -0.023984    -0.029631     0.097143
C428     C     -0.378873    -0.005647    -0.476016
C429     C     -0.476016    -0.378873    -0.005647
C430     C     -0.470369    -0.494353     0.126774
C431     C      0.126774    -0.470369    -0.494353
C432     C     -0.029631     0.097143    -0.023984
C433     C     -0.067917    -0.019096     0.402338
C434     C      0.078566    -0.470255     0.097662
C435     C     -0.432083    -0.029745     0.048821
C436     C      0.421434    -0.480904     0.451179
C437     C      0.402338    -0.067917    -0.019096
C438     C     -0.019096     0.402338    -0.067917
C439     C      0.451179     0.421434    -0.480904
C440     C     -0.470255     0.097662     0.078566
C441     C      0.097662     0.078566    -0.470255
C442     C     -0.029745     0.048821    -0.432083
C443     C      0.048821    -0.432083    -0.029745
C444     C     -0.480904     0.451179     0.421434
C445     C      0.480904     0.432083    -0.097662
C446     C      0.029745    -0.421434    -0.402338
C447     C      0.470255     0.067917    -0.451179
C448     C      0.019096    -0.078566    -0.048821
C449     C      0.432083    -0.097662     0.480904
C450     C     -0.097662     0.480904     0.432083
C451     C     -0.078566    -0.048821     0.019096
C452     C     -0.402338     0.029745    -0.421434
C453     C     -0.421434    -0.402338     0.029745
C454     C     -0.451179     0.470255     0.067917
C455     C      0.067917    -0.451179     0.470255
C456     C     -0.048821     0.019096    -0.078566
B1       B     -0.040709    -0.049683     0.456244
B2       B     -0.005927    -0.496953     0.043756
B3       B     -0.459291    -0.003047    -0.008974
B4       B     -0.494073    -0.450317    -0.491026
B5       B      0.456244    -0.040709    -0.049683
B6       B     -0.049683     0.456244    -0.040709
B7       B     -0.491026    -0.494073    -0.450317
B8       B     -0.496953     0.043756    -0.005927
B9       B      0.043756    -0.005927    -0.496953
B10      B     -0.003047    -0.008974    -0.459291
B11      B     -0.008974    -0.459291    -0.003047
B12      B     -0.450317    -0.491026    -0.494073
B13      B      0.450317     0.459291    -0.043756
B14      B      0.003047     0.494073    -0.456244
B15      B      0.496953     0.040709     0.491026
B16      B      0.049683     0.005927     0.008974
B17      B      0.459291    -0.043756     0.450317
B18      B     -0.043756     0.450317     0.459291
B19      B      0.005927     0.008974     0.049683
B20      B     -0.456244     0.003047     0.494073
B21      B      0.494073    -0.456244     0.003047
B22      B      0.491026     0.496953     0.040709
B23      B      0.040709     0.491026     0.496953
B24      B      0.008974     0.049683     0.005927
C457     C     -0.157050    -0.100345     0.337452
C458     C      0.062203    -0.494502     0.162548
C459     C     -0.342950    -0.005498     0.056705
C460     C      0.437797    -0.399655     0.443295
C461     C      0.337452    -0.157050    -0.100345
C462     C     -0.100345     0.337452    -0.157050
C463     C      0.443295     0.437797    -0.399655
C464     C     -0.494502     0.162548     0.062203
C465     C      0.162548     0.062203    -0.494502
C466     C     -0.005498     0.056705    -0.342950
C467     C      0.056705    -0.342950    -0.005498
C468     C     -0.399655     0.443295     0.437797
C469     C      0.399655     0.342950    -0.162548
C470     C      0.005498    -0.437797    -0.337452
C471     C      0.494502     0.157050    -0.443295
C472     C      0.100345    -0.062203    -0.056705
C473     C      0.342950    -0.162548     0.399655
C474     C     -0.162548     0.399655     0.342950
C475     C     -0.062203    -0.056705     0.100345
C476     C     -0.337452     0.005498    -0.437797
C477     C     -0.437797    -0.337452     0.005498
C478     C     -0.443295     0.494502     0.157050
C479     C      0.157050    -0.443295     0.494502
C480     C     -0.056705     0.100345    -0.062203
C481     C     -0.375000     0.375000     0.250000
C482     C     -0.125000     0.125000    -0.250000
C483     C      0.250000    -0.375000     0.375000
C484     C      0.375000     0.250000    -0.375000
C485     C     -0.250000    -0.125000     0.125000
C486     C      0.125000    -0.250000    -0.125000
