data_Staggered_MSUCOF-4-NiCp_BULK_OPTGEOM_DZ_optimized

_cell_length_a    34.175518
_cell_length_b    34.175518
_cell_length_c    34.175518
_cell_angle_alpha 109.471221
_cell_angle_beta  109.471221
_cell_angle_gamma 109.471221

_symmetry_space_group_name_H-M  'P 1'
_symmetry_Int_Tables_number     1

loop_
_symmetry_equiv_pos_as_xyz
  'x, y, z'

loop_
_atom_site_label
_atom_site_type_symbol
_atom_site_fract_x
_atom_site_fract_y
_atom_site_fract_z
H1       H      0.086078     0.056590     0.431796
H2       H      0.124794    -0.345718     0.068204
H3       H      0.413922    -0.154282    -0.029489
H4       H      0.375206     0.443410    -0.470511
H5       H      0.431796     0.086078     0.056590
H6       H      0.056590     0.431796     0.086078
H7       H     -0.470511     0.375206     0.443410
H8       H     -0.345718     0.068204     0.124794
H9       H      0.068204     0.124794    -0.345718
H10      H     -0.154282    -0.029489     0.413922
H11      H     -0.029489     0.413922    -0.154282
H12      H      0.443410    -0.470511     0.375206
H13      H     -0.443410    -0.413922    -0.068204
H14      H      0.154282    -0.375206    -0.431796
H15      H      0.345718    -0.086078     0.470511
H16      H     -0.056590    -0.124794     0.029489
H17      H     -0.413922    -0.068204    -0.443410
H18      H     -0.068204    -0.443410    -0.413922
H19      H     -0.124794     0.029489    -0.056590
H20      H     -0.431796     0.154282    -0.375206
H21      H     -0.375206    -0.431796     0.154282
H22      H      0.470511     0.345718    -0.086078
H23      H     -0.086078     0.470511     0.345718
H24      H      0.029489    -0.056590    -0.124794
H25      H     -0.019389     0.003772     0.285133
H26      H      0.218639    -0.304522     0.214867
H27      H     -0.480611    -0.195478     0.023161
H28      H      0.281361     0.496228     0.476839
H29      H      0.285133    -0.019389     0.003772
H30      H      0.003772     0.285133    -0.019389
H31      H      0.476839     0.281361     0.496228
H32      H     -0.304522     0.214867     0.218639
H33      H      0.214867     0.218639    -0.304522
H34      H     -0.195478     0.023161    -0.480611
H35      H      0.023161    -0.480611    -0.195478
H36      H      0.496228     0.476839     0.281361
H37      H     -0.496228     0.480611    -0.214867
H38      H      0.195478    -0.281361    -0.285133
H39      H      0.304522     0.019389    -0.476839
H40      H     -0.003772    -0.218639    -0.023161
H41      H      0.480611    -0.214867    -0.496228
H42      H     -0.214867    -0.496228     0.480611
H43      H     -0.218639    -0.023161    -0.003772
H44      H     -0.285133     0.195478    -0.281361
H45      H     -0.281361    -0.285133     0.195478
H46      H     -0.476839     0.304522     0.019389
H47      H      0.019389    -0.476839     0.304522
H48      H     -0.023161    -0.003772    -0.218639
H49      H     -0.037832    -0.071673     0.300583
H50      H      0.127745    -0.338415     0.199417
H51      H     -0.462168    -0.161585    -0.033841
H52      H      0.372255    -0.428327    -0.466159
H53      H      0.300583    -0.037832    -0.071673
H54      H     -0.071673     0.300583    -0.037832
H55      H     -0.466159     0.372255    -0.428327
H56      H     -0.338415     0.199417     0.127745
H57      H      0.199417     0.127745    -0.338415
H58      H     -0.161585    -0.033841    -0.462168
H59      H     -0.033841    -0.462168    -0.161585
H60      H     -0.428327    -0.466159     0.372255
H61      H      0.428327     0.462168    -0.199417
H62      H      0.161585    -0.372255    -0.300583
H63      H      0.338415     0.037832     0.466159
H64      H      0.071673    -0.127745     0.033841
H65      H      0.462168    -0.199417     0.428327
H66      H     -0.199417     0.428327     0.462168
H67      H     -0.127745     0.033841     0.071673
H68      H     -0.300583     0.161585    -0.372255
H69      H     -0.372255    -0.300583     0.161585
H70      H      0.466159     0.338415     0.037832
H71      H      0.037832     0.466159     0.338415
H72      H      0.033841     0.071673    -0.127745
H73      H      0.059808     0.081960     0.364269
H74      H      0.217691    -0.304461     0.135731
H75      H      0.440192    -0.195539     0.022152
H76      H      0.282309     0.418040     0.477848
H77      H      0.364269     0.059808     0.081960
H78      H      0.081960     0.364269     0.059808
H79      H      0.477848     0.282309     0.418040
H80      H     -0.304461     0.135731     0.217691
H81      H      0.135731     0.217691    -0.304461
H82      H     -0.195539     0.022152     0.440192
H83      H      0.022152     0.440192    -0.195539
H84      H      0.418040     0.477848     0.282309
H85      H     -0.418040    -0.440192    -0.135731
H86      H      0.195539    -0.282309    -0.364269
H87      H      0.304461    -0.059808    -0.477848
H88      H     -0.081960    -0.217691    -0.022152
H89      H     -0.440192    -0.135731    -0.418040
H90      H     -0.135731    -0.418040    -0.440192
H91      H     -0.217691    -0.022152    -0.081960
H92      H     -0.364269     0.195539    -0.282309
H93      H     -0.282309    -0.364269     0.195539
H94      H     -0.477848     0.304461    -0.059808
H95      H     -0.059808    -0.477848     0.304461
H96      H     -0.022152    -0.081960    -0.217691
C1       C      0.056994     0.033426     0.394767
C2       C      0.138659    -0.337773     0.105233
C3       C      0.443006    -0.162227    -0.023568
C4       C      0.361341     0.466574    -0.476432
C5       C      0.394767     0.056994     0.033426
C6       C      0.033426     0.394767     0.056994
C7       C     -0.476432     0.361341     0.466574
C8       C     -0.337773     0.105233     0.138659
C9       C      0.105233     0.138659    -0.337773
C10      C     -0.162227    -0.023568     0.443006
C11      C     -0.023568     0.443006    -0.162227
C12      C      0.466574    -0.476432     0.361341
C13      C     -0.466574    -0.443006    -0.105233
C14      C      0.162227    -0.361341    -0.394767
C15      C      0.337773    -0.056994     0.476432
C16      C     -0.033426    -0.138659     0.023568
C17      C     -0.443006    -0.105233    -0.466574
C18      C     -0.105233    -0.466574    -0.443006
C19      C     -0.138659     0.023568    -0.033426
C20      C     -0.394767     0.162227    -0.361341
C21      C     -0.361341    -0.394767     0.162227
C22      C      0.476432     0.337773    -0.056994
C23      C     -0.056994     0.476432     0.337773
C24      C      0.023568    -0.033426    -0.138659
C25      C      0.024809    -0.017229     0.373804
C26      C      0.108968    -0.348994     0.126196
C27      C      0.475191    -0.151006    -0.042038
C28      C      0.391032    -0.482771    -0.457962
C29      C      0.373804     0.024809    -0.017229
C30      C     -0.017229     0.373804     0.024809
C31      C     -0.457962     0.391032    -0.482771
C32      C     -0.348994     0.126196     0.108968
C33      C      0.126196     0.108968    -0.348994
C34      C     -0.151006    -0.042038     0.475191
C35      C     -0.042038     0.475191    -0.151006
C36      C     -0.482771    -0.457962     0.391032
C37      C      0.482771    -0.475191    -0.126196
C38      C      0.151006    -0.391032    -0.373804
C39      C      0.348994    -0.024809     0.457962
C40      C      0.017229    -0.108968     0.042038
C41      C     -0.475191    -0.126196     0.482771
C42      C     -0.126196     0.482771    -0.475191
C43      C     -0.108968     0.042038     0.017229
C44      C     -0.373804     0.151006    -0.391032
C45      C     -0.391032    -0.373804     0.151006
C46      C      0.457962     0.348994    -0.024809
C47      C     -0.024809     0.457962     0.348994
C48      C      0.042038     0.017229    -0.108968
C49      C      0.043783     0.046302     0.359488
C50      C      0.186813    -0.315706     0.140512
C51      C      0.456217    -0.184294     0.002519
C52      C      0.313187     0.453698     0.497481
C53      C      0.359488     0.043783     0.046302
C54      C      0.046302     0.359488     0.043783
C55      C      0.497481     0.313187     0.453698
C56      C     -0.315706     0.140512     0.186813
C57      C      0.140512     0.186813    -0.315706
C58      C     -0.184294     0.002519     0.456217
C59      C      0.002519     0.456217    -0.184294
C60      C      0.453698     0.497481     0.313187
C61      C     -0.453698    -0.456217    -0.140512
C62      C      0.184294    -0.313187    -0.359488
C63      C      0.315706    -0.043783    -0.497481
C64      C     -0.046302    -0.186813    -0.002519
C65      C     -0.456217    -0.140512    -0.453698
C66      C     -0.140512    -0.453698    -0.456217
C67      C     -0.186813    -0.002519    -0.046302
C68      C     -0.359488     0.184294    -0.313187
C69      C     -0.313187    -0.359488     0.184294
C70      C     -0.497481     0.315706    -0.043783
C71      C     -0.043783    -0.497481     0.315706
C72      C     -0.002519    -0.046302    -0.186813
Ni1      Ni    -0.013938     0.017229     0.372902
Ni2      Ni     0.144327    -0.386840     0.127098
Ni3      Ni    -0.486062    -0.113160     0.031167
Ni4      Ni     0.355673     0.482771     0.468833
Ni5      Ni     0.372902    -0.013938     0.017229
Ni6      Ni     0.017229     0.372902    -0.013938
Ni7      Ni     0.468833     0.355673     0.482771
Ni8      Ni    -0.386840     0.127098     0.144327
Ni9      Ni     0.127098     0.144327    -0.386840
Ni10     Ni    -0.113160     0.031167    -0.486062
Ni11     Ni     0.031167    -0.486062    -0.113160
Ni12     Ni     0.482771     0.468833     0.355673
Ni13     Ni    -0.482771     0.486062    -0.127098
Ni14     Ni     0.113160    -0.355673    -0.372902
Ni15     Ni     0.386840     0.013938    -0.468833
Ni16     Ni    -0.017229    -0.144327    -0.031167
Ni17     Ni     0.486062    -0.127098    -0.482771
Ni18     Ni    -0.127098    -0.482771     0.486062
Ni19     Ni    -0.144327    -0.031167    -0.017229
Ni20     Ni    -0.372902     0.113160    -0.355673
Ni21     Ni    -0.355673    -0.372902     0.113160
Ni22     Ni    -0.468833     0.386840     0.013938
Ni23     Ni     0.013938    -0.468833     0.386840
Ni24     Ni    -0.031167    -0.017229    -0.144327
H97      H      0.007318     0.042440     0.462603
H98      H      0.079837    -0.455285     0.037397
H99      H      0.492682    -0.044715     0.035122
H100     H      0.420163     0.457560     0.464878
H101     H      0.462603     0.007318     0.042440
H102     H      0.042440     0.462603     0.007318
H103     H      0.464878     0.420163     0.457560
H104     H     -0.455285     0.037397     0.079837
H105     H      0.037397     0.079837    -0.455285
H106     H     -0.044715     0.035122     0.492682
H107     H      0.035122     0.492682    -0.044715
H108     H      0.457560     0.464878     0.420163
H109     H     -0.457560    -0.492682    -0.037397
H110     H      0.044715    -0.420163    -0.462603
H111     H      0.455285    -0.007318    -0.464878
H112     H     -0.042440    -0.079837    -0.035122
H113     H     -0.492682    -0.037397    -0.457560
H114     H     -0.037397    -0.457560    -0.492682
H115     H     -0.079837    -0.035122    -0.042440
H116     H     -0.462603     0.044715    -0.420163
H117     H     -0.420163    -0.462603     0.044715
H118     H     -0.464878     0.455285    -0.007318
H119     H     -0.007318    -0.464878     0.455285
H120     H     -0.035122    -0.042440    -0.079837
C73      C      0.001007     0.005070     0.318109
C74      C      0.186961    -0.317102     0.181891
C75      C      0.498993    -0.182898     0.004063
C76      C      0.313039     0.494930     0.495937
C77      C      0.318109     0.001007     0.005070
C78      C      0.005070     0.318109     0.001007
C79      C      0.495937     0.313039     0.494930
C80      C     -0.317102     0.181891     0.186961
C81      C      0.181891     0.186961    -0.317102
C82      C     -0.182898     0.004063     0.498993
C83      C      0.004063     0.498993    -0.182898
C84      C      0.494930     0.495937     0.313039
C85      C     -0.494930    -0.498993    -0.181891
C86      C      0.182898    -0.313039    -0.318109
C87      C      0.317102    -0.001007    -0.495937
C88      C     -0.005070    -0.186961    -0.004063
C89      C     -0.498993    -0.181891    -0.494930
C90      C     -0.181891    -0.494930    -0.498993
C91      C     -0.186961    -0.004063    -0.005070
C92      C     -0.318109     0.182898    -0.313039
C93      C     -0.313039    -0.318109     0.182898
C94      C     -0.495937     0.317102    -0.001007
C95      C     -0.001007    -0.495937     0.317102
C96      C     -0.004063    -0.005070    -0.186961
H121     H     -0.010698     0.094195     0.422578
H122     H      0.171616    -0.433276     0.077422
H123     H     -0.489302    -0.066724     0.104893
H124     H      0.328384     0.405805     0.395107
H125     H      0.422578    -0.010698     0.094195
H126     H      0.094195     0.422578    -0.010698
H127     H      0.395107     0.328384     0.405805
H128     H     -0.433276     0.077422     0.171616
H129     H      0.077422     0.171616    -0.433276
H130     H     -0.066724     0.104893    -0.489302
H131     H      0.104893    -0.489302    -0.066724
H132     H      0.405805     0.395107     0.328384
H133     H     -0.405805     0.489302    -0.077422
H134     H      0.066724    -0.328384    -0.422578
H135     H      0.433276     0.010698    -0.395107
H136     H     -0.094195    -0.171616    -0.104893
H137     H      0.489302    -0.077422    -0.405805
H138     H     -0.077422    -0.405805     0.489302
H139     H     -0.171616    -0.104893    -0.094195
H140     H     -0.422578     0.066724    -0.328384
H141     H     -0.328384    -0.422578     0.066724
H142     H     -0.395107     0.433276     0.010698
H143     H      0.010698    -0.395107     0.433276
H144     H     -0.104893    -0.094195    -0.171616
C97      C     -0.073589     0.022509     0.360779
C98      C      0.161730    -0.434368     0.139221
C99      C     -0.426411    -0.065632     0.096098
C100     C      0.338270     0.477491     0.403902
C101     C      0.360779    -0.073589     0.022509
C102     C      0.022509     0.360779    -0.073589
C103     C      0.403902     0.338270     0.477491
C104     C     -0.434368     0.139221     0.161730
C105     C      0.139221     0.161730    -0.434368
C106     C     -0.065632     0.096098    -0.426411
C107     C      0.096098    -0.426411    -0.065632
C108     C      0.477491     0.403902     0.338270
C109     C     -0.477491     0.426411    -0.139221
C110     C      0.065632    -0.338270    -0.360779
C111     C      0.434368     0.073589    -0.403902
C112     C     -0.022509    -0.161730    -0.096098
C113     C      0.426411    -0.139221    -0.477491
C114     C     -0.139221    -0.477491     0.426411
C115     C     -0.161730    -0.096098    -0.022509
C116     C     -0.360779     0.065632    -0.338270
C117     C     -0.338270    -0.360779     0.065632
C118     C     -0.403902     0.434368     0.073589
C119     C      0.073589    -0.403902     0.434368
C120     C     -0.096098    -0.022509    -0.161730
C121     C     -0.023890     0.027771     0.428379
C122     C      0.099392    -0.452269     0.071621
C123     C     -0.476110    -0.047731     0.051661
C124     C      0.400608     0.472229     0.448339
C125     C      0.428379    -0.023890     0.027771
C126     C      0.027771     0.428379    -0.023890
C127     C      0.448339     0.400608     0.472229
C128     C     -0.452269     0.071621     0.099392
C129     C      0.071621     0.099392    -0.452269
C130     C     -0.047731     0.051661    -0.476110
C131     C      0.051661    -0.476110    -0.047731
C132     C      0.472229     0.448339     0.400608
C133     C     -0.472229     0.476110    -0.071621
C134     C      0.047731    -0.400608    -0.428379
C135     C      0.452269     0.023890    -0.448339
C136     C     -0.027771    -0.099392    -0.051661
C137     C      0.476110    -0.071621    -0.472229
C138     C     -0.071621    -0.472229     0.476110
C139     C     -0.099392    -0.051661    -0.027771
C140     C     -0.428379     0.047731    -0.400608
C141     C     -0.400608    -0.428379     0.047731
C142     C     -0.448339     0.452269     0.023890
C143     C      0.023890    -0.448339     0.452269
C144     C     -0.051661    -0.027771    -0.099392
C145     C     -0.033161     0.056038     0.407682
C146     C      0.148355    -0.440843     0.092318
C147     C     -0.466839    -0.059157     0.089198
C148     C      0.351645     0.443962     0.410802
C149     C      0.407682    -0.033161     0.056038
C150     C      0.056038     0.407682    -0.033161
C151     C      0.410802     0.351645     0.443962
C152     C     -0.440843     0.092318     0.148355
C153     C      0.092318     0.148355    -0.440843
C154     C     -0.059157     0.089198    -0.466839
C155     C      0.089198    -0.466839    -0.059157
C156     C      0.443962     0.410802     0.351645
C157     C     -0.443962     0.466839    -0.092318
C158     C      0.059157    -0.351645    -0.407682
C159     C      0.440843     0.033161    -0.410802
C160     C     -0.056038    -0.148355    -0.089198
C161     C      0.466839    -0.092318    -0.443962
C162     C     -0.092318    -0.443962     0.466839
C163     C     -0.148355    -0.089198    -0.056038
C164     C     -0.407682     0.059157    -0.351645
C165     C     -0.351645    -0.407682     0.059157
C166     C     -0.410802     0.440843     0.033161
C167     C      0.033161    -0.410802     0.440843
C168     C     -0.089198    -0.056038    -0.148355
H145     H     -0.089586     0.031400     0.334190
H146     H      0.197210    -0.423776     0.165810
H147     H     -0.410414    -0.076224     0.120986
H148     H      0.302790     0.468600     0.379014
H149     H      0.334190    -0.089586     0.031400
H150     H      0.031400     0.334190    -0.089586
H151     H      0.379014     0.302790     0.468600
H152     H     -0.423776     0.165810     0.197210
H153     H      0.165810     0.197210    -0.423776
H154     H     -0.076224     0.120986    -0.410414
H155     H      0.120986    -0.410414    -0.076224
H156     H      0.468600     0.379014     0.302790
H157     H     -0.468600     0.410414    -0.165810
H158     H      0.076224    -0.302790    -0.334190
H159     H      0.423776     0.089586    -0.379014
H160     H     -0.031400    -0.197210    -0.120986
H161     H      0.410414    -0.165810    -0.468600
H162     H     -0.165810    -0.468600     0.410414
H163     H     -0.197210    -0.120986    -0.031400
H164     H     -0.334190     0.076224    -0.302790
H165     H     -0.302790    -0.334190     0.076224
H166     H     -0.379014     0.423776     0.089586
H167     H      0.089586    -0.379014     0.423776
H168     H     -0.120986    -0.031400    -0.197210
H169     H      0.025617    -0.036776     0.393124
H170     H      0.070100    -0.367507     0.106876
H171     H      0.474383    -0.132493    -0.062393
H172     H      0.429900    -0.463224    -0.437607
H173     H      0.393124     0.025617    -0.036776
H174     H     -0.036776     0.393124     0.025617
H175     H     -0.437607     0.429900    -0.463224
H176     H     -0.367507     0.106876     0.070100
H177     H      0.106876     0.070100    -0.367507
H178     H     -0.132493    -0.062393     0.474383
H179     H     -0.062393     0.474383    -0.132493
H180     H     -0.463224    -0.437607     0.429900
H181     H      0.463224    -0.474383    -0.106876
H182     H      0.132493    -0.429900    -0.393124
H183     H      0.367507    -0.025617     0.437607
H184     H      0.036776    -0.070100     0.062393
H185     H     -0.474383    -0.106876     0.463224
H186     H     -0.106876     0.463224    -0.474383
H187     H     -0.070100     0.062393     0.036776
H188     H     -0.393124     0.132493    -0.429900
H189     H     -0.429900    -0.393124     0.132493
H190     H      0.437607     0.367507    -0.025617
H191     H     -0.025617     0.437607     0.367507
H192     H      0.062393     0.036776    -0.070100
O1       O      0.003201    -0.039701     0.459148
O2       O      0.001151    -0.455947     0.040852
O3       O      0.496799    -0.044053    -0.042902
O4       O      0.498849    -0.460299    -0.457098
O5       O      0.459148     0.003201    -0.039701
O6       O     -0.039701     0.459148     0.003201
O7       O     -0.457098     0.498849    -0.460299
O8       O     -0.455947     0.040852     0.001151
O9       O      0.040852     0.001151    -0.455947
O10      O     -0.044053    -0.042902     0.496799
O11      O     -0.042902     0.496799    -0.044053
O12      O     -0.460299    -0.457098     0.498849
O13      O      0.460299    -0.496799    -0.040852
O14      O      0.044053    -0.498849    -0.459148
O15      O      0.455947    -0.003201     0.457098
O16      O      0.039701    -0.001151     0.042902
O17      O     -0.496799    -0.040852     0.460299
O18      O     -0.040852     0.460299    -0.496799
O19      O     -0.001151     0.042902     0.039701
O20      O     -0.459148     0.044053    -0.498849
O21      O     -0.498849    -0.459148     0.044053
O22      O      0.457098     0.455947    -0.003201
O23      O     -0.003201     0.457098     0.455947
O24      O      0.042902     0.039701    -0.001151
H193     H     -0.149883    -0.075302     0.185960
H194     H      0.238738    -0.335843     0.314040
H195     H     -0.350117    -0.164157     0.074581
H196     H      0.261262    -0.424698     0.425419
H197     H      0.185960    -0.149883    -0.075302
H198     H     -0.075302     0.185960    -0.149883
H199     H      0.425419     0.261262    -0.424698
H200     H     -0.335843     0.314040     0.238738
H201     H      0.314040     0.238738    -0.335843
H202     H     -0.164157     0.074581    -0.350117
H203     H      0.074581    -0.350117    -0.164157
H204     H     -0.424698     0.425419     0.261262
H205     H      0.424698     0.350117    -0.314040
H206     H      0.164157    -0.261262    -0.185960
H207     H      0.335843     0.149883    -0.425419
H208     H      0.075302    -0.238738    -0.074581
H209     H      0.350117    -0.314040     0.424698
H210     H     -0.314040     0.424698     0.350117
H211     H     -0.238738    -0.074581     0.075302
H212     H     -0.185960     0.164157    -0.261262
H213     H     -0.261262    -0.185960     0.164157
H214     H     -0.425419     0.335843     0.149883
H215     H      0.149883    -0.425419     0.335843
H216     H     -0.074581     0.075302    -0.238738
H217     H     -0.191340    -0.133057     0.311149
H218     H      0.055794     0.497511     0.188851
H219     H     -0.308660     0.002489     0.058283
H220     H      0.444206    -0.366943     0.441717
H221     H      0.311149    -0.191340    -0.133057
H222     H     -0.133057     0.311149    -0.191340
H223     H      0.441717     0.444206    -0.366943
H224     H      0.497511     0.188851     0.055794
H225     H      0.188851     0.055794     0.497511
H226     H      0.002489     0.058283    -0.308660
H227     H      0.058283    -0.308660     0.002489
H228     H     -0.366943     0.441717     0.444206
H229     H      0.366943     0.308660    -0.188851
H230     H     -0.002489    -0.444206    -0.311149
H231     H     -0.497511     0.191340    -0.441717
H232     H      0.133057    -0.055794    -0.058283
H233     H      0.308660    -0.188851     0.366943
H234     H     -0.188851     0.366943     0.308660
H235     H     -0.055794    -0.058283     0.133057
H236     H     -0.311149    -0.002489    -0.444206
H237     H     -0.444206    -0.311149    -0.002489
H238     H     -0.441717    -0.497511     0.191340
H239     H      0.191340    -0.441717    -0.497511
H240     H     -0.058283     0.133057    -0.055794
C169     C     -0.008556    -0.035188     0.325836
C170     C      0.138977    -0.334392     0.174164
C171     C     -0.491444    -0.165608    -0.026632
C172     C      0.361023    -0.464812    -0.473368
C173     C      0.325836    -0.008556    -0.035188
C174     C     -0.035188     0.325836    -0.008556
C175     C     -0.473368     0.361023    -0.464812
C176     C     -0.334392     0.174164     0.138977
C177     C      0.174164     0.138977    -0.334392
C178     C     -0.165608    -0.026632    -0.491444
C179     C     -0.026632    -0.491444    -0.165608
C180     C     -0.464812    -0.473368     0.361023
C181     C      0.464812     0.491444    -0.174164
C182     C      0.165608    -0.361023    -0.325836
C183     C      0.334392     0.008556     0.473368
C184     C      0.035188    -0.138977     0.026632
C185     C      0.491444    -0.174164     0.464812
C186     C     -0.174164     0.464812     0.491444
C187     C     -0.138977     0.026632     0.035188
C188     C     -0.325836     0.165608    -0.361023
C189     C     -0.361023    -0.325836     0.165608
C190     C      0.473368     0.334392     0.008556
C191     C      0.008556     0.473368     0.334392
C192     C      0.026632     0.035188    -0.138977
H241     H     -0.282528    -0.119528     0.186671
H242     H      0.193801    -0.469199     0.313329
H243     H     -0.217472    -0.030801     0.163001
H244     H      0.306199    -0.380472     0.336999
H245     H      0.186671    -0.282528    -0.119528
H246     H     -0.119528     0.186671    -0.282528
H247     H      0.336999     0.306199    -0.380472
H248     H     -0.469199     0.313329     0.193801
H249     H      0.313329     0.193801    -0.469199
H250     H     -0.030801     0.163001    -0.217472
H251     H      0.163001    -0.217472    -0.030801
H252     H     -0.380472     0.336999     0.306199
H253     H      0.380472     0.217472    -0.313329
H254     H      0.030801    -0.306199    -0.186671
H255     H      0.469199     0.282528    -0.336999
H256     H      0.119528    -0.193801    -0.163001
H257     H      0.217472    -0.313329     0.380472
H258     H     -0.313329     0.380472     0.217472
H259     H     -0.193801    -0.163001     0.119528
H260     H     -0.186671     0.030801    -0.306199
H261     H     -0.306199    -0.186671     0.030801
H262     H     -0.336999     0.469199     0.282528
H263     H      0.282528    -0.336999     0.469199
H264     H     -0.163001     0.119528    -0.193801
H265     H     -0.239355    -0.095748     0.272622
H266     H      0.131630     0.488023     0.227378
H267     H     -0.260645     0.011977     0.143607
H268     H      0.368370    -0.404252     0.356393
H269     H      0.272622    -0.239355    -0.095748
H270     H     -0.095748     0.272622    -0.239355
H271     H      0.356393     0.368370    -0.404252
H272     H      0.488023     0.227378     0.131630
H273     H      0.227378     0.131630     0.488023
H274     H      0.011977     0.143607    -0.260645
H275     H      0.143607    -0.260645     0.011977
H276     H     -0.404252     0.356393     0.368370
H277     H      0.404252     0.260645    -0.227378
H278     H     -0.011977    -0.368370    -0.272622
H279     H     -0.488023     0.239355    -0.356393
H280     H      0.095748    -0.131630    -0.143607
H281     H      0.260645    -0.227378     0.404252
H282     H     -0.227378     0.404252     0.260645
H283     H     -0.131630    -0.143607     0.095748
H284     H     -0.272622    -0.011977    -0.368370
H285     H     -0.368370    -0.272622    -0.011977
H286     H     -0.356393    -0.488023     0.239355
H287     H      0.239355    -0.356393    -0.488023
H288     H     -0.143607     0.095748    -0.131630
H289     H     -0.138218    -0.127291     0.384911
H290     H     -0.012202     0.476871     0.115089
H291     H     -0.361782     0.023129     0.010928
H292     H     -0.487798    -0.372709     0.489072
H293     H      0.384911    -0.138218    -0.127291
H294     H     -0.127291     0.384911    -0.138218
H295     H      0.489072    -0.487798    -0.372709
H296     H      0.476871     0.115089    -0.012202
H297     H      0.115089    -0.012202     0.476871
H298     H      0.023129     0.010928    -0.361782
H299     H      0.010928    -0.361782     0.023129
H300     H     -0.372709     0.489072    -0.487798
H301     H      0.372709     0.361782    -0.115089
H302     H     -0.023129     0.487798    -0.384911
H303     H     -0.476871     0.138218    -0.489072
H304     H      0.127291     0.012202    -0.010928
H305     H      0.361782    -0.115089     0.372709
H306     H     -0.115089     0.372709     0.361782
H307     H      0.012202    -0.010928     0.127291
H308     H     -0.384911    -0.023129     0.487798
H309     H      0.487798    -0.384911    -0.023129
H310     H     -0.489072    -0.476871     0.138218
H311     H      0.138218    -0.489072    -0.476871
H312     H     -0.010928     0.127291     0.012202
H313     H     -0.106494    -0.048329     0.272732
H314     H      0.178940    -0.379226     0.227268
H315     H     -0.393506    -0.120774     0.058166
H316     H      0.321060    -0.451671     0.441834
H317     H      0.272732    -0.106494    -0.048329
H318     H     -0.048329     0.272732    -0.106494
H319     H      0.441834     0.321060    -0.451671
H320     H     -0.379226     0.227268     0.178940
H321     H      0.227268     0.178940    -0.379226
H322     H     -0.120774     0.058166    -0.393506
H323     H      0.058166    -0.393506    -0.120774
H324     H     -0.451671     0.441834     0.321060
H325     H      0.451671     0.393506    -0.227268
H326     H      0.120774    -0.321060    -0.272732
H327     H      0.379226     0.106494    -0.441834
H328     H      0.048329    -0.178940    -0.058166
H329     H      0.393506    -0.227268     0.451671
H330     H     -0.227268     0.451671     0.393506
H331     H     -0.178940    -0.058166     0.048329
H332     H     -0.272732     0.120774    -0.321060
H333     H     -0.321060    -0.272732     0.120774
H334     H     -0.441834     0.379226     0.106494
H335     H      0.106494    -0.441834     0.379226
H336     H     -0.058166     0.048329    -0.178940
C193     C     -0.243952    -0.105516     0.205304
C194     C      0.189180    -0.449256     0.294696
C195     C     -0.256048    -0.050744     0.138436
C196     C      0.310820    -0.394484     0.361564
C197     C      0.205304    -0.243952    -0.105516
C198     C     -0.105516     0.205304    -0.243952
C199     C      0.361564     0.310820    -0.394484
C200     C     -0.449256     0.294696     0.189180
C201     C      0.294696     0.189180    -0.449256
C202     C     -0.050744     0.138436    -0.256048
C203     C      0.138436    -0.256048    -0.050744
C204     C     -0.394484     0.361564     0.310820
C205     C      0.394484     0.256048    -0.294696
C206     C      0.050744    -0.310820    -0.205304
C207     C      0.449256     0.243952    -0.361564
C208     C      0.105516    -0.189180    -0.138436
C209     C      0.256048    -0.294696     0.394484
C210     C     -0.294696     0.394484     0.256048
C211     C     -0.189180    -0.138436     0.105516
C212     C     -0.205304     0.050744    -0.310820
C213     C     -0.310820    -0.205304     0.050744
C214     C     -0.361564     0.449256     0.243952
C215     C      0.243952    -0.361564     0.449256
C216     C     -0.138436     0.105516    -0.189180
C217     C     -0.170080    -0.072394     0.277702
C218     C      0.149904    -0.447782     0.222298
C219     C     -0.329920    -0.052218     0.097686
C220     C      0.350096    -0.427606     0.402314
C221     C      0.277702    -0.170080    -0.072394
C222     C     -0.072394     0.277702    -0.170080
C223     C      0.402314     0.350096    -0.427606
C224     C     -0.447782     0.222298     0.149904
C225     C      0.222298     0.149904    -0.447782
C226     C     -0.052218     0.097686    -0.329920
C227     C      0.097686    -0.329920    -0.052218
C228     C     -0.427606     0.402314     0.350096
C229     C      0.427606     0.329920    -0.222298
C230     C      0.052218    -0.350096    -0.277702
C231     C      0.447782     0.170080    -0.402314
C232     C      0.072394    -0.149904    -0.097686
C233     C      0.329920    -0.222298     0.427606
C234     C     -0.222298     0.427606     0.329920
C235     C     -0.149904    -0.097686     0.072394
C236     C     -0.277702     0.052218    -0.350096
C237     C     -0.350096    -0.277702     0.052218
C238     C     -0.402314     0.447782     0.170080
C239     C      0.170080    -0.402314     0.447782
C240     C     -0.097686     0.072394    -0.149904
C241     C     -0.219810    -0.102551     0.179350
C242     C      0.218099    -0.399160     0.320650
C243     C     -0.280190    -0.100840     0.117259
C244     C      0.281901    -0.397449     0.382741
C245     C      0.179350    -0.219810    -0.102551
C246     C     -0.102551     0.179350    -0.219810
C247     C      0.382741     0.281901    -0.397449
C248     C     -0.399160     0.320650     0.218099
C249     C      0.320650     0.218099    -0.399160
C250     C     -0.100840     0.117259    -0.280190
C251     C      0.117259    -0.280190    -0.100840
C252     C     -0.397449     0.382741     0.281901
C253     C      0.397449     0.280190    -0.320650
C254     C      0.100840    -0.281901    -0.179350
C255     C      0.399160     0.219810    -0.382741
C256     C      0.102551    -0.218099    -0.117259
C257     C      0.280190    -0.320650     0.397449
C258     C     -0.320650     0.397449     0.280190
C259     C     -0.218099    -0.117259     0.102551
C260     C     -0.179350     0.100840    -0.281901
C261     C     -0.281901    -0.179350     0.100840
C262     C     -0.382741     0.399160     0.219810
C263     C      0.219810    -0.382741     0.399160
C264     C     -0.117259     0.102551    -0.218099
C265     C     -0.169908    -0.079890     0.204595
C266     C      0.215515    -0.374503     0.295405
C267     C     -0.330092    -0.125497     0.090017
C268     C      0.284485    -0.420110     0.409983
C269     C      0.204595    -0.169908    -0.079890
C270     C     -0.079890     0.204595    -0.169908
C271     C      0.409983     0.284485    -0.420110
C272     C     -0.374503     0.295405     0.215515
C273     C      0.295405     0.215515    -0.374503
C274     C     -0.125497     0.090017    -0.330092
C275     C      0.090017    -0.330092    -0.125497
C276     C     -0.420110     0.409983     0.284485
C277     C      0.420110     0.330092    -0.295405
C278     C      0.125497    -0.284485    -0.204595
C279     C      0.374503     0.169908    -0.409983
C280     C      0.079890    -0.215515    -0.090017
C281     C      0.330092    -0.295405     0.420110
C282     C     -0.295405     0.420110     0.330092
C283     C     -0.215515    -0.090017     0.079890
C284     C     -0.204595     0.125497    -0.284485
C285     C     -0.284485    -0.204595     0.125497
C286     C     -0.409983     0.374503     0.169908
C287     C      0.169908    -0.409983     0.374503
C288     C     -0.090017     0.079890    -0.215515
C289     C     -0.080461    -0.057201     0.411272
C290     C      0.031527    -0.491733     0.088728
C291     C     -0.419539    -0.008267     0.023259
C292     C      0.468473    -0.442799     0.476741
C293     C      0.411272    -0.080461    -0.057201
C294     C     -0.057201     0.411272    -0.080461
C295     C      0.476741     0.468473    -0.442799
C296     C     -0.491733     0.088728     0.031527
C297     C      0.088728     0.031527    -0.491733
C298     C     -0.008267     0.023259    -0.419539
C299     C      0.023259    -0.419539    -0.008267
C300     C     -0.442799     0.476741     0.468473
C301     C      0.442799     0.419539    -0.088728
C302     C      0.008267    -0.468473    -0.411272
C303     C      0.491733     0.080461    -0.476741
C304     C      0.057201    -0.031527    -0.023259
C305     C      0.419539    -0.088728     0.442799
C306     C     -0.088728     0.442799     0.419539
C307     C     -0.031527    -0.023259     0.057201
C308     C     -0.411272     0.008267    -0.468473
C309     C     -0.468473    -0.411272     0.008267
C310     C     -0.476741     0.491733     0.080461
C311     C      0.080461    -0.476741     0.491733
C312     C     -0.023259     0.057201    -0.031527
C313     C     -0.098923    -0.022019     0.360285
C314     C      0.117696    -0.459209     0.139715
C315     C     -0.401077    -0.040791     0.076904
C316     C      0.382304    -0.477981     0.423096
C317     C      0.360285    -0.098923    -0.022019
C318     C     -0.022019     0.360285    -0.098923
C319     C      0.423096     0.382304    -0.477981
C320     C     -0.459209     0.139715     0.117696
C321     C      0.139715     0.117696    -0.459209
C322     C     -0.040791     0.076904    -0.401077
C323     C      0.076904    -0.401077    -0.040791
C324     C     -0.477981     0.423096     0.382304
C325     C      0.477981     0.401077    -0.139715
C326     C      0.040791    -0.382304    -0.360285
C327     C      0.459209     0.098923    -0.423096
C328     C      0.022019    -0.117696    -0.076904
C329     C      0.401077    -0.139715     0.477981
C330     C     -0.139715     0.477981     0.401077
C331     C     -0.117696    -0.076904     0.022019
C332     C     -0.360285     0.040791    -0.382304
C333     C     -0.382304    -0.360285     0.040791
C334     C     -0.423096     0.459209     0.098923
C335     C      0.098923    -0.423096     0.459209
C336     C     -0.076904     0.022019    -0.117696
C337     C     -0.219837    -0.091906     0.253357
C338     C      0.154737    -0.473194     0.246643
C339     C     -0.280163    -0.026806     0.127930
C340     C      0.345263    -0.408094     0.372070
C341     C      0.253357    -0.219837    -0.091906
C342     C     -0.091906     0.253357    -0.219837
C343     C      0.372070     0.345263    -0.408094
C344     C     -0.473194     0.246643     0.154737
C345     C      0.246643     0.154737    -0.473194
C346     C     -0.026806     0.127930    -0.280163
C347     C      0.127930    -0.280163    -0.026806
C348     C     -0.408094     0.372070     0.345263
C349     C      0.408094     0.280163    -0.246643
C350     C      0.026806    -0.345263    -0.253357
C351     C      0.473194     0.219837    -0.372070
C352     C      0.091906    -0.154737    -0.127930
C353     C      0.280163    -0.246643     0.408094
C354     C     -0.246643     0.408094     0.280163
C355     C     -0.154737    -0.127930     0.091906
C356     C     -0.253357     0.026806    -0.345263
C357     C     -0.345263    -0.253357     0.026806
C358     C     -0.372070     0.473194     0.219837
C359     C      0.219837    -0.372070     0.473194
C360     C     -0.127930     0.091906    -0.154737
C361     C     -0.142838    -0.063669     0.326295
C362     C      0.110036    -0.469133     0.173705
C363     C     -0.357162    -0.030867     0.079169
C364     C      0.389964    -0.436331     0.420831
C365     C      0.326295    -0.142838    -0.063669
C366     C     -0.063669     0.326295    -0.142838
C367     C      0.420831     0.389964    -0.436331
C368     C     -0.469133     0.173705     0.110036
C369     C      0.173705     0.110036    -0.469133
C370     C     -0.030867     0.079169    -0.357162
C371     C      0.079169    -0.357162    -0.030867
C372     C     -0.436331     0.420831     0.389964
C373     C      0.436331     0.357162    -0.173705
C374     C      0.030867    -0.389964    -0.326295
C375     C      0.469133     0.142838    -0.420831
C376     C      0.063669    -0.110036    -0.079169
C377     C      0.357162    -0.173705     0.436331
C378     C     -0.173705     0.436331     0.357162
C379     C     -0.110036    -0.079169     0.063669
C380     C     -0.326295     0.030867    -0.389964
C381     C     -0.389964    -0.326295     0.030867
C382     C     -0.420831     0.469133     0.142838
C383     C      0.142838    -0.420831     0.469133
C384     C     -0.079169     0.063669    -0.110036
C385     C     -0.145434    -0.064713     0.253182
C386     C      0.182105    -0.398615     0.246818
C387     C     -0.354566    -0.101385     0.080721
C388     C      0.317895    -0.435287     0.419279
C389     C      0.253182    -0.145434    -0.064713
C390     C     -0.064713     0.253182    -0.145434
C391     C      0.419279     0.317895    -0.435287
C392     C     -0.398615     0.246818     0.182105
C393     C      0.246818     0.182105    -0.398615
C394     C     -0.101385     0.080721    -0.354566
C395     C      0.080721    -0.354566    -0.101385
C396     C     -0.435287     0.419279     0.317895
C397     C      0.435287     0.354566    -0.246818
C398     C      0.101385    -0.317895    -0.253182
C399     C      0.398615     0.145434    -0.419279
C400     C      0.064713    -0.182105    -0.080721
C401     C      0.354566    -0.246818     0.435287
C402     C     -0.246818     0.435287     0.354566
C403     C     -0.182105    -0.080721     0.064713
C404     C     -0.253182     0.101385    -0.317895
C405     C     -0.317895    -0.253182     0.101385
C406     C     -0.419279     0.398615     0.145434
C407     C      0.145434    -0.419279     0.398615
C408     C     -0.080721     0.064713    -0.182105
C409     C     -0.126760    -0.097105     0.378866
C410     C      0.024029     0.494374     0.121134
C411     C     -0.373240     0.005626     0.029655
C412     C      0.475971    -0.402895     0.470345
C413     C      0.378866    -0.126760    -0.097105
C414     C     -0.097105     0.378866    -0.126760
C415     C      0.470345     0.475971    -0.402895
C416     C      0.494374     0.121134     0.024029
C417     C      0.121134     0.024029     0.494374
C418     C      0.005626     0.029655    -0.373240
C419     C      0.029655    -0.373240     0.005626
C420     C     -0.402895     0.470345     0.475971
C421     C      0.402895     0.373240    -0.121134
C422     C     -0.005626    -0.475971    -0.378866
C423     C     -0.494374     0.126760    -0.470345
C424     C      0.097105    -0.024029    -0.029655
C425     C      0.373240    -0.121134     0.402895
C426     C     -0.121134     0.402895     0.373240
C427     C     -0.024029    -0.029655     0.097105
C428     C     -0.378866    -0.005626    -0.475971
C429     C     -0.475971    -0.378866    -0.005626
C430     C     -0.470345    -0.494374     0.126760
C431     C      0.126760    -0.470345    -0.494374
C432     C     -0.029655     0.097105    -0.024029
C433     C     -0.067915    -0.019060     0.402334
C434     C      0.078606    -0.470249     0.097666
C435     C     -0.432085    -0.029751     0.048855
C436     C      0.421394    -0.480940     0.451145
C437     C      0.402334    -0.067915    -0.019060
C438     C     -0.019060     0.402334    -0.067915
C439     C      0.451145     0.421394    -0.480940
C440     C     -0.470249     0.097666     0.078606
C441     C      0.097666     0.078606    -0.470249
C442     C     -0.029751     0.048855    -0.432085
C443     C      0.048855    -0.432085    -0.029751
C444     C     -0.480940     0.451145     0.421394
C445     C      0.480940     0.432085    -0.097666
C446     C      0.029751    -0.421394    -0.402334
C447     C      0.470249     0.067915    -0.451145
C448     C      0.019060    -0.078606    -0.048855
C449     C      0.432085    -0.097666     0.480940
C450     C     -0.097666     0.480940     0.432085
C451     C     -0.078606    -0.048855     0.019060
C452     C     -0.402334     0.029751    -0.421394
C453     C     -0.421394    -0.402334     0.029751
C454     C     -0.451145     0.470249     0.067915
C455     C      0.067915    -0.451145     0.470249
C456     C     -0.048855     0.019060    -0.078606
B1       B     -0.040707    -0.049630     0.456247
B2       B     -0.005877    -0.496953     0.043753
B3       B     -0.459293    -0.003047    -0.008923
B4       B     -0.494123    -0.450370    -0.491077
B5       B      0.456247    -0.040707    -0.049630
B6       B     -0.049630     0.456247    -0.040707
B7       B     -0.491077    -0.494123    -0.450370
B8       B     -0.496953     0.043753    -0.005877
B9       B      0.043753    -0.005877    -0.496953
B10      B     -0.003047    -0.008923    -0.459293
B11      B     -0.008923    -0.459293    -0.003047
B12      B     -0.450370    -0.491077    -0.494123
B13      B      0.450370     0.459293    -0.043753
B14      B      0.003047     0.494123    -0.456247
B15      B      0.496953     0.040707     0.491077
B16      B      0.049630     0.005877     0.008923
B17      B      0.459293    -0.043753     0.450370
B18      B     -0.043753     0.450370     0.459293
B19      B      0.005877     0.008923     0.049630
B20      B     -0.456247     0.003047     0.494123
B21      B      0.494123    -0.456247     0.003047
B22      B      0.491077     0.496953     0.040707
B23      B      0.040707     0.491077     0.496953
B24      B      0.008923     0.049630     0.005877
C457     C     -0.157029    -0.100312     0.337443
C458     C      0.062245    -0.494472     0.162557
C459     C     -0.342971    -0.005528     0.056717
C460     C      0.437755    -0.399688     0.443283
C461     C      0.337443    -0.157029    -0.100312
C462     C     -0.100312     0.337443    -0.157029
C463     C      0.443283     0.437755    -0.399688
C464     C     -0.494472     0.162557     0.062245
C465     C      0.162557     0.062245    -0.494472
C466     C     -0.005528     0.056717    -0.342971
C467     C      0.056717    -0.342971    -0.005528
C468     C     -0.399688     0.443283     0.437755
C469     C      0.399688     0.342971    -0.162557
C470     C      0.005528    -0.437755    -0.337443
C471     C      0.494472     0.157029    -0.443283
C472     C      0.100312    -0.062245    -0.056717
C473     C      0.342971    -0.162557     0.399688
C474     C     -0.162557     0.399688     0.342971
C475     C     -0.062245    -0.056717     0.100312
C476     C     -0.337443     0.005528    -0.437755
C477     C     -0.437755    -0.337443     0.005528
C478     C     -0.443283     0.494472     0.157029
C479     C      0.157029    -0.443283     0.494472
C480     C     -0.056717     0.100312    -0.062245
C481     C     -0.375000     0.375000     0.250000
C482     C     -0.125000     0.125000    -0.250000
C483     C      0.250000    -0.375000     0.375000
C484     C      0.375000     0.250000    -0.375000
C485     C     -0.250000    -0.125000     0.125000
C486     C      0.125000    -0.250000    -0.125000
