data_Staggered_MSUCOF-4-MnCp_BULK_OPTGEOM_DZ_optimized

_cell_length_a    37.264271
_cell_length_b    37.264271
_cell_length_c    37.264271
_cell_angle_alpha 109.471221
_cell_angle_beta  109.471221
_cell_angle_gamma 109.471221

_symmetry_space_group_name_H-M  'P 1'
_symmetry_Int_Tables_number     1

loop_
_symmetry_equiv_pos_as_xyz
  'x, y, z'

loop_
_atom_site_label
_atom_site_type_symbol
_atom_site_fract_x
_atom_site_fract_y
_atom_site_fract_z
H1       H      0.048610     0.017315     0.332339
H2       H      0.184976    -0.283729     0.167661
H3       H      0.451390    -0.216271    -0.031296
H4       H      0.315024     0.482685    -0.468704
H5       H      0.332339     0.048610     0.017315
H6       H      0.017315     0.332339     0.048610
H7       H     -0.468704     0.315024     0.482685
H8       H     -0.283729     0.167661     0.184976
H9       H      0.167661     0.184976    -0.283729
H10      H     -0.216271    -0.031296     0.451390
H11      H     -0.031296     0.451390    -0.216271
H12      H      0.482685    -0.468704     0.315024
H13      H     -0.482685    -0.451390    -0.167661
H14      H      0.216271    -0.315024    -0.332339
H15      H      0.283729    -0.048610     0.468704
H16      H     -0.017315    -0.184976     0.031296
H17      H     -0.451390    -0.167661    -0.482685
H18      H     -0.167661    -0.482685    -0.451390
H19      H     -0.184976     0.031296    -0.017315
H20      H     -0.332339     0.216271    -0.315024
H21      H     -0.315024    -0.332339     0.216271
H22      H      0.468704     0.283729    -0.048610
H23      H     -0.048610     0.468704     0.283729
H24      H      0.031296    -0.017315    -0.184976
H25      H     -0.077929    -0.090684     0.289808
H26      H      0.119509    -0.367737     0.210192
H27      H     -0.422071    -0.132263    -0.012755
H28      H      0.380491    -0.409316    -0.487245
H29      H      0.289808    -0.077929    -0.090684
H30      H     -0.090684     0.289808    -0.077929
H31      H     -0.487245     0.380491    -0.409316
H32      H     -0.367737     0.210192     0.119509
H33      H      0.210192     0.119509    -0.367737
H34      H     -0.132263    -0.012755    -0.422071
H35      H     -0.012755    -0.422071    -0.132263
H36      H     -0.409316    -0.487245     0.380491
H37      H      0.409316     0.422071    -0.210192
H38      H      0.132263    -0.380491    -0.289808
H39      H      0.367737     0.077929     0.487245
H40      H      0.090684    -0.119509     0.012755
H41      H      0.422071    -0.210192     0.409316
H42      H     -0.210192     0.409316     0.422071
H43      H     -0.119509     0.012755     0.090684
H44      H     -0.289808     0.132263    -0.380491
H45      H     -0.380491    -0.289808     0.132263
H46      H      0.487245     0.367737     0.077929
H47      H      0.077929     0.487245     0.367737
H48      H      0.012755     0.090684    -0.119509
H49      H     -0.030451    -0.050620     0.377541
H50      H      0.071840    -0.407992     0.122459
H51      H     -0.469549    -0.092008    -0.020168
H52      H      0.428160    -0.449380    -0.479832
H53      H      0.377541    -0.030451    -0.050620
H54      H     -0.050620     0.377541    -0.030451
H55      H     -0.479832     0.428160    -0.449380
H56      H     -0.407992     0.122459     0.071840
H57      H      0.122459     0.071840    -0.407992
H58      H     -0.092008    -0.020168    -0.469549
H59      H     -0.020168    -0.469549    -0.092008
H60      H     -0.449380    -0.479832     0.428160
H61      H      0.449380     0.469549    -0.122459
H62      H      0.092008    -0.428160    -0.377541
H63      H      0.407992     0.030451     0.479832
H64      H      0.050620    -0.071840     0.020168
H65      H      0.469549    -0.122459     0.449380
H66      H     -0.122459     0.449380     0.469549
H67      H     -0.071840     0.020168     0.050620
H68      H     -0.377541     0.092008    -0.428160
H69      H     -0.428160    -0.377541     0.092008
H70      H      0.479832     0.407992     0.030451
H71      H      0.030451     0.479832     0.407992
H72      H      0.020168     0.050620    -0.071840
H73      H     -0.029567    -0.049057     0.261473
H74      H      0.189470    -0.291040     0.238527
H75      H     -0.470433    -0.208960    -0.019490
H76      H      0.310530    -0.450943    -0.480510
H77      H      0.261473    -0.029567    -0.049057
H78      H     -0.049057     0.261473    -0.029567
H79      H     -0.480510     0.310530    -0.450943
H80      H     -0.291040     0.238527     0.189470
H81      H      0.238527     0.189470    -0.291040
H82      H     -0.208960    -0.019490    -0.470433
H83      H     -0.019490    -0.470433    -0.208960
H84      H     -0.450943    -0.480510     0.310530
H85      H      0.450943     0.470433    -0.238527
H86      H      0.208960    -0.310530    -0.261473
H87      H      0.291040     0.029567     0.480510
H88      H      0.049057    -0.189470     0.019490
H89      H      0.470433    -0.238527     0.450943
H90      H     -0.238527     0.450943     0.470433
H91      H     -0.189470     0.019490     0.049057
H92      H     -0.261473     0.208960    -0.310530
H93      H     -0.310530    -0.261473     0.208960
H94      H      0.480510     0.291040     0.029567
H95      H      0.029567     0.480510     0.291040
H96      H      0.019490     0.049057    -0.189470
C1       C      0.022014    -0.005774     0.332813
C2       C      0.161413    -0.310798     0.167187
C3       C      0.477986    -0.189202    -0.027789
C4       C      0.338587    -0.494226    -0.472211
C5       C      0.332813     0.022014    -0.005774
C6       C     -0.005774     0.332813     0.022014
C7       C     -0.472211     0.338587    -0.494226
C8       C     -0.310798     0.167187     0.161413
C9       C      0.167187     0.161413    -0.310798
C10      C     -0.189202    -0.027789     0.477986
C11      C     -0.027789     0.477986    -0.189202
C12      C     -0.494226    -0.472211     0.338587
C13      C      0.494226    -0.477986    -0.167187
C14      C      0.189202    -0.338587    -0.332813
C15      C      0.310798    -0.022014     0.472211
C16      C      0.005774    -0.161413     0.027789
C17      C     -0.477986    -0.167187     0.494226
C18      C     -0.167187     0.494226    -0.477986
C19      C     -0.161413     0.027789     0.005774
C20      C     -0.332813     0.189202    -0.338587
C21      C     -0.338587    -0.332813     0.189202
C22      C      0.472211     0.310798    -0.022014
C23      C     -0.022014     0.472211     0.310798
C24      C      0.027789     0.005774    -0.161413
C25      C      0.022217    -0.006996     0.370888
C26      C      0.122116    -0.348671     0.129112
C27      C      0.477783    -0.151329    -0.029212
C28      C      0.377884    -0.493004    -0.470788
C29      C      0.370888     0.022217    -0.006996
C30      C     -0.006996     0.370888     0.022217
C31      C     -0.470788     0.377884    -0.493004
C32      C     -0.348671     0.129112     0.122116
C33      C      0.129112     0.122116    -0.348671
C34      C     -0.151329    -0.029212     0.477783
C35      C     -0.029212     0.477783    -0.151329
C36      C     -0.493004    -0.470788     0.377884
C37      C      0.493004    -0.477783    -0.129112
C38      C      0.151329    -0.377884    -0.370888
C39      C      0.348671    -0.022217     0.470788
C40      C      0.006996    -0.122116     0.029212
C41      C     -0.477783    -0.129112     0.493004
C42      C     -0.129112     0.493004    -0.477783
C43      C     -0.122116     0.029212     0.006996
C44      C     -0.370888     0.151329    -0.377884
C45      C     -0.377884    -0.370888     0.151329
C46      C      0.470788     0.348671    -0.022217
C47      C     -0.022217     0.470788     0.348671
C48      C      0.029212     0.006996    -0.122116
C49      C     -0.019140    -0.041166     0.295319
C50      C      0.163515    -0.314459     0.204681
C51      C     -0.480860    -0.185541    -0.022027
C52      C      0.336485    -0.458834    -0.477973
C53      C      0.295319    -0.019140    -0.041166
C54      C     -0.041166     0.295319    -0.019140
C55      C     -0.477973     0.336485    -0.458834
C56      C     -0.314459     0.204681     0.163515
C57      C      0.204681     0.163515    -0.314459
C58      C     -0.185541    -0.022027    -0.480860
C59      C     -0.022027    -0.480860    -0.185541
C60      C     -0.458834    -0.477973     0.336485
C61      C      0.458834     0.480860    -0.204681
C62      C      0.185541    -0.336485    -0.295319
C63      C      0.314459     0.019140     0.477973
C64      C      0.041166    -0.163515     0.022027
C65      C      0.480860    -0.204681     0.458834
C66      C     -0.204681     0.458834     0.480860
C67      C     -0.163515     0.022027     0.041166
C68      C     -0.295319     0.185541    -0.336485
C69      C     -0.336485    -0.295319     0.185541
C70      C      0.477973     0.314459     0.019140
C71      C      0.019140     0.477973     0.314459
C72      C      0.022027     0.041166    -0.163515
Mn1      Mn    -0.026870     0.004028     0.340484
Mn2      Mn     0.163545    -0.367354     0.159516
Mn3      Mn    -0.473130    -0.132646     0.030898
Mn4      Mn     0.336455     0.495972     0.469102
Mn5      Mn     0.340484    -0.026870     0.004028
Mn6      Mn     0.004028     0.340484    -0.026870
Mn7      Mn     0.469102     0.336455     0.495972
Mn8      Mn    -0.367354     0.159516     0.163545
Mn9      Mn     0.159516     0.163545    -0.367354
Mn10     Mn    -0.132646     0.030898    -0.473130
Mn11     Mn     0.030898    -0.473130    -0.132646
Mn12     Mn     0.495972     0.469102     0.336455
Mn13     Mn    -0.495972     0.473130    -0.159516
Mn14     Mn     0.132646    -0.336455    -0.340484
Mn15     Mn     0.367354     0.026870    -0.469102
Mn16     Mn    -0.004028    -0.163545    -0.030898
Mn17     Mn     0.473130    -0.159516    -0.495972
Mn18     Mn    -0.159516    -0.495972     0.473130
Mn19     Mn    -0.163545    -0.030898    -0.004028
Mn20     Mn    -0.340484     0.132646    -0.336455
Mn21     Mn    -0.336455    -0.340484     0.132646
Mn22     Mn    -0.469102     0.367354     0.026870
Mn23     Mn     0.026870    -0.469102     0.367354
Mn24     Mn    -0.030898    -0.004028    -0.163545
H97      H      0.018213     0.086642     0.417571
H98      H      0.169071    -0.399358     0.082429
H99      H      0.481787    -0.100642     0.068429
H100     H      0.330929     0.413358     0.431571
H101     H      0.417571     0.018213     0.086642
H102     H      0.086642     0.417571     0.018213
H103     H      0.431571     0.330929     0.413358
H104     H     -0.399358     0.082429     0.169071
H105     H      0.082429     0.169071    -0.399358
H106     H     -0.100642     0.068429     0.481787
H107     H      0.068429     0.481787    -0.100642
H108     H      0.413358     0.431571     0.330929
H109     H     -0.413358    -0.481787    -0.082429
H110     H      0.100642    -0.330929    -0.417571
H111     H      0.399358    -0.018213    -0.431571
H112     H     -0.086642    -0.169071    -0.068429
H113     H     -0.481787    -0.082429    -0.413358
H114     H     -0.082429    -0.413358    -0.481787
H115     H     -0.169071    -0.068429    -0.086642
H116     H     -0.417571     0.100642    -0.330929
H117     H     -0.330929    -0.417571     0.100642
H118     H     -0.431571     0.399358    -0.018213
H119     H     -0.018213    -0.431571     0.399358
H120     H     -0.068429    -0.086642    -0.169071
C73      C     -0.044171    -0.063748     0.310057
C74      C      0.126194    -0.354228     0.189943
C75      C     -0.455829    -0.145772    -0.019578
C76      C      0.373806    -0.436252    -0.480422
C77      C      0.310057    -0.044171    -0.063748
C78      C     -0.063748     0.310057    -0.044171
C79      C     -0.480422     0.373806    -0.436252
C80      C     -0.354228     0.189943     0.126194
C81      C      0.189943     0.126194    -0.354228
C82      C     -0.145772    -0.019578    -0.455829
C83      C     -0.019578    -0.455829    -0.145772
C84      C     -0.436252    -0.480422     0.373806
C85      C      0.436252     0.455829    -0.189943
C86      C      0.145772    -0.373806    -0.310057
C87      C      0.354228     0.044171     0.480422
C88      C      0.063748    -0.126194     0.019578
C89      C      0.455829    -0.189943     0.436252
C90      C     -0.189943     0.436252     0.455829
C91      C     -0.126194     0.019578     0.063748
C92      C     -0.310057     0.145772    -0.373806
C93      C     -0.373806    -0.310057     0.145772
C94      C      0.480422     0.354228     0.044171
C95      C      0.044171     0.480422     0.354228
C96      C      0.019578     0.063748    -0.126194
H121     H      0.005575     0.084772     0.340856
H122     H      0.243916    -0.335281     0.159144
H123     H      0.494425    -0.164719     0.079197
H124     H      0.256084     0.415228     0.420803
H125     H      0.340856     0.005575     0.084772
H126     H      0.084772     0.340856     0.005575
H127     H      0.420803     0.256084     0.415228
H128     H     -0.335281     0.159144     0.243916
H129     H      0.159144     0.243916    -0.335281
H130     H     -0.164719     0.079197     0.494425
H131     H      0.079197     0.494425    -0.164719
H132     H      0.415228     0.420803     0.256084
H133     H     -0.415228    -0.494425    -0.159144
H134     H      0.164719    -0.256084    -0.340856
H135     H      0.335281    -0.005575    -0.420803
H136     H     -0.084772    -0.243916    -0.079197
H137     H     -0.494425    -0.159144    -0.415228
H138     H     -0.159144    -0.415228    -0.494425
H139     H     -0.243916    -0.079197    -0.084772
H140     H     -0.340856     0.164719    -0.256084
H141     H     -0.256084    -0.340856     0.164719
H142     H     -0.420803     0.335281    -0.005575
H143     H     -0.005575    -0.420803     0.335281
H144     H     -0.079197    -0.084772    -0.243916
C97      C     -0.062190     0.029826     0.311839
C98      C      0.217987    -0.374029     0.188161
C99      C     -0.437810    -0.125971     0.092016
C100     C      0.282013     0.470174     0.407984
C101     C      0.311839    -0.062190     0.029826
C102     C      0.029826     0.311839    -0.062190
C103     C      0.407984     0.282013     0.470174
C104     C     -0.374029     0.188161     0.217987
C105     C      0.188161     0.217987    -0.374029
C106     C     -0.125971     0.092016    -0.437810
C107     C      0.092016    -0.437810    -0.125971
C108     C      0.470174     0.407984     0.282013
C109     C     -0.470174     0.437810    -0.188161
C110     C      0.125971    -0.282013    -0.311839
C111     C      0.374029     0.062190    -0.407984
C112     C     -0.029826    -0.217987    -0.092016
C113     C      0.437810    -0.188161    -0.470174
C114     C     -0.188161    -0.470174     0.437810
C115     C     -0.217987    -0.092016    -0.029826
C116     C     -0.311839     0.125971    -0.282013
C117     C     -0.282013    -0.311839     0.125971
C118     C     -0.407984     0.374029     0.062190
C119     C      0.062190    -0.407984     0.374029
C120     C     -0.092016    -0.029826    -0.217987
C121     C     -0.011766     0.064995     0.385941
C122     C      0.179054    -0.397707     0.114059
C123     C     -0.488234    -0.102293     0.076762
C124     C      0.320946     0.435005     0.423238
C125     C      0.385941    -0.011766     0.064995
C126     C      0.064995     0.385941    -0.011766
C127     C      0.423238     0.320946     0.435005
C128     C     -0.397707     0.114059     0.179054
C129     C      0.114059     0.179054    -0.397707
C130     C     -0.102293     0.076762    -0.488234
C131     C      0.076762    -0.488234    -0.102293
C132     C      0.435005     0.423238     0.320946
C133     C     -0.435005     0.488234    -0.114059
C134     C      0.102293    -0.320946    -0.385941
C135     C      0.397707     0.011766    -0.423238
C136     C     -0.064995    -0.179054    -0.076762
C137     C      0.488234    -0.114059    -0.435005
C138     C     -0.114059    -0.435005     0.488234
C139     C     -0.179054    -0.076762    -0.064995
C140     C     -0.385941     0.102293    -0.320946
C141     C     -0.320946    -0.385941     0.102293
C142     C     -0.423238     0.397707     0.011766
C143     C      0.011766    -0.423238     0.397707
C144     C     -0.076762    -0.064995    -0.179054
C145     C     -0.018582     0.063718     0.345457
C146     C      0.218262    -0.364039     0.154543
C147     C     -0.481418    -0.135961     0.082300
C148     C      0.281738     0.436282     0.417700
C149     C      0.345457    -0.018582     0.063718
C150     C      0.063718     0.345457    -0.018582
C151     C      0.417700     0.281738     0.436282
C152     C     -0.364039     0.154543     0.218262
C153     C      0.154543     0.218262    -0.364039
C154     C     -0.135961     0.082300    -0.481418
C155     C      0.082300    -0.481418    -0.135961
C156     C      0.436282     0.417700     0.281738
C157     C     -0.436282     0.481418    -0.154543
C158     C      0.135961    -0.281738    -0.345457
C159     C      0.364039     0.018582    -0.417700
C160     C     -0.063718    -0.218262    -0.082300
C161     C      0.481418    -0.154543    -0.436282
C162     C     -0.154543    -0.436282     0.481418
C163     C     -0.218262    -0.082300    -0.063718
C164     C     -0.345457     0.135961    -0.281738
C165     C     -0.281738    -0.345457     0.135961
C166     C     -0.417700     0.364039     0.018582
C167     C      0.018582    -0.417700     0.364039
C168     C     -0.082300    -0.063718    -0.218262
H145     H     -0.077427     0.021159     0.277600
H146     H      0.243559    -0.355027     0.222400
H147     H     -0.422573    -0.144973     0.098585
H148     H      0.256441     0.478841     0.401415
H149     H      0.277600    -0.077427     0.021159
H150     H      0.021159     0.277600    -0.077427
H151     H      0.401415     0.256441     0.478841
H152     H     -0.355027     0.222400     0.243559
H153     H      0.222400     0.243559    -0.355027
H154     H     -0.144973     0.098585    -0.422573
H155     H      0.098585    -0.422573    -0.144973
H156     H      0.478841     0.401415     0.256441
H157     H     -0.478841     0.422573    -0.222400
H158     H      0.144973    -0.256441    -0.277600
H159     H      0.355027     0.077427    -0.401415
H160     H     -0.021159    -0.243559    -0.098585
H161     H      0.422573    -0.222400    -0.478841
H162     H     -0.222400    -0.478841     0.422573
H163     H     -0.243559    -0.098585    -0.021159
H164     H     -0.277600     0.144973    -0.256441
H165     H     -0.256441    -0.277600     0.144973
H166     H     -0.401415     0.355027     0.077427
H167     H      0.077427    -0.401415     0.355027
H168     H     -0.098585    -0.021159    -0.243559
H169     H      0.048671     0.015336     0.404667
H170     H      0.110669    -0.355996     0.095333
H171     H      0.451329    -0.144004    -0.033335
H172     H      0.389331     0.484664    -0.466665
H173     H      0.404667     0.048671     0.015336
H174     H      0.015336     0.404667     0.048671
H175     H     -0.466665     0.389331     0.484664
H176     H     -0.355996     0.095333     0.110669
H177     H      0.095333     0.110669    -0.355996
H178     H     -0.144004    -0.033335     0.451329
H179     H     -0.033335     0.451329    -0.144004
H180     H      0.484664    -0.466665     0.389331
H181     H     -0.484664    -0.451329    -0.095333
H182     H      0.144004    -0.389331    -0.404667
H183     H      0.355996    -0.048671     0.466665
H184     H     -0.015336    -0.110669     0.033335
H185     H     -0.451329    -0.095333    -0.484664
H186     H     -0.095333    -0.484664    -0.451329
H187     H     -0.110669     0.033335    -0.015336
H188     H     -0.404667     0.144004    -0.389331
H189     H     -0.389331    -0.404667     0.144004
H190     H      0.466665     0.355996    -0.048671
H191     H     -0.048671     0.466665     0.355996
H192     H      0.033335    -0.015336    -0.110669
O1       O      0.014244     0.060453     0.470158
O2       O      0.090296    -0.455914     0.029842
O3       O      0.485756    -0.044086     0.046210
O4       O      0.409704     0.439547     0.453790
O5       O      0.470158     0.014244     0.060453
O6       O      0.060453     0.470158     0.014244
O7       O      0.453790     0.409704     0.439547
O8       O     -0.455914     0.029842     0.090296
O9       O      0.029842     0.090296    -0.455914
O10      O     -0.044086     0.046210     0.485756
O11      O      0.046210     0.485756    -0.044086
O12      O      0.439547     0.453790     0.409704
O13      O     -0.439547    -0.485756    -0.029842
O14      O      0.044086    -0.409704    -0.470158
O15      O      0.455914    -0.014244    -0.453790
O16      O     -0.060453    -0.090296    -0.046210
O17      O     -0.485756    -0.029842    -0.439547
O18      O     -0.029842    -0.439547    -0.485756
O19      O     -0.090296    -0.046210    -0.060453
O20      O     -0.470158     0.044086    -0.409704
O21      O     -0.409704    -0.470158     0.044086
O22      O     -0.453790     0.455914    -0.014244
O23      O     -0.014244    -0.453790     0.455914
O24      O     -0.046210    -0.060453    -0.090296
H193     H     -0.159385    -0.090632     0.167958
H194     H      0.241409    -0.327343     0.332042
H195     H     -0.340615    -0.172657     0.068753
H196     H      0.258591    -0.409368     0.431247
H197     H      0.167958    -0.159385    -0.090632
H198     H     -0.090632     0.167958    -0.159385
H199     H      0.431247     0.258591    -0.409368
H200     H     -0.327343     0.332042     0.241409
H201     H      0.332042     0.241409    -0.327343
H202     H     -0.172657     0.068753    -0.340615
H203     H      0.068753    -0.340615    -0.172657
H204     H     -0.409368     0.431247     0.258591
H205     H      0.409368     0.340615    -0.332042
H206     H      0.172657    -0.258591    -0.167958
H207     H      0.327343     0.159385    -0.431247
H208     H      0.090632    -0.241409    -0.068753
H209     H      0.340615    -0.332042     0.409368
H210     H     -0.332042     0.409368     0.340615
H211     H     -0.241409    -0.068753     0.090632
H212     H     -0.167958     0.172657    -0.258591
H213     H     -0.258591    -0.167958     0.172657
H214     H     -0.431247     0.327343     0.159385
H215     H      0.159385    -0.431247     0.327343
H216     H     -0.068753     0.090632    -0.241409
H217     H     -0.167531    -0.065676     0.328785
H218     H      0.105539    -0.496316     0.171215
H219     H     -0.332469    -0.003684     0.101855
H220     H      0.394461    -0.434324     0.398145
H221     H      0.328785    -0.167531    -0.065676
H222     H     -0.065676     0.328785    -0.167531
H223     H      0.398145     0.394461    -0.434324
H224     H     -0.496316     0.171215     0.105539
H225     H      0.171215     0.105539    -0.496316
H226     H     -0.003684     0.101855    -0.332469
H227     H      0.101855    -0.332469    -0.003684
H228     H     -0.434324     0.398145     0.394461
H229     H      0.434324     0.332469    -0.171215
H230     H      0.003684    -0.394461    -0.328785
H231     H      0.496316     0.167531    -0.398145
H232     H      0.065676    -0.105539    -0.101855
H233     H      0.332469    -0.171215     0.434324
H234     H     -0.171215     0.434324     0.332469
H235     H     -0.105539    -0.101855     0.065676
H236     H     -0.328785     0.003684    -0.394461
H237     H     -0.394461    -0.328785     0.003684
H238     H     -0.398145     0.496316     0.167531
H239     H      0.167531    -0.398145     0.496316
H240     H     -0.101855     0.065676    -0.105539
C169     C     -0.018946    -0.042776     0.356473
C170     C      0.100751    -0.375419     0.143527
C171     C     -0.481054    -0.124581    -0.023830
C172     C      0.399249    -0.457224    -0.476170
C173     C      0.356473    -0.018946    -0.042776
C174     C     -0.042776     0.356473    -0.018946
C175     C     -0.476170     0.399249    -0.457224
C176     C     -0.375419     0.143527     0.100751
C177     C      0.143527     0.100751    -0.375419
C178     C     -0.124581    -0.023830    -0.481054
C179     C     -0.023830    -0.481054    -0.124581
C180     C     -0.457224    -0.476170     0.399249
C181     C      0.457224     0.481054    -0.143527
C182     C      0.124581    -0.399249    -0.356473
C183     C      0.375419     0.018946     0.476170
C184     C      0.042776    -0.100751     0.023830
C185     C      0.481054    -0.143527     0.457224
C186     C     -0.143527     0.457224     0.481054
C187     C     -0.100751     0.023830     0.042776
C188     C     -0.356473     0.124581    -0.399249
C189     C     -0.399249    -0.356473     0.124581
C190     C      0.476170     0.375419     0.018946
C191     C      0.018946     0.476170     0.375419
C192     C      0.023830     0.042776    -0.100751
H241     H     -0.265635    -0.099987     0.192758
H242     H      0.207255    -0.458393     0.307242
H243     H     -0.234365    -0.041607     0.165647
H244     H      0.292745    -0.400013     0.334353
H245     H      0.192758    -0.265635    -0.099987
H246     H     -0.099987     0.192758    -0.265635
H247     H      0.334353     0.292745    -0.400013
H248     H     -0.458393     0.307242     0.207255
H249     H      0.307242     0.207255    -0.458393
H250     H     -0.041607     0.165647    -0.234365
H251     H      0.165647    -0.234365    -0.041607
H252     H     -0.400013     0.334353     0.292745
H253     H      0.400013     0.234365    -0.307242
H254     H      0.041607    -0.292745    -0.192758
H255     H      0.458393     0.265635    -0.334353
H256     H      0.099987    -0.207255    -0.165647
H257     H      0.234365    -0.307242     0.400013
H258     H     -0.307242     0.400013     0.234365
H259     H     -0.207255    -0.165647     0.099987
H260     H     -0.192758     0.041607    -0.292745
H261     H     -0.292745    -0.192758     0.041607
H262     H     -0.334353     0.458393     0.265635
H263     H      0.265635    -0.334353     0.458393
H264     H     -0.165647     0.099987    -0.207255
H265     H     -0.213569    -0.058439     0.272708
H266     H      0.168853    -0.486277     0.227292
H267     H     -0.286431    -0.013723     0.155130
H268     H      0.331147    -0.441561     0.344870
H269     H      0.272708    -0.213569    -0.058439
H270     H     -0.058439     0.272708    -0.213569
H271     H      0.344870     0.331147    -0.441561
H272     H     -0.486277     0.227292     0.168853
H273     H      0.227292     0.168853    -0.486277
H274     H     -0.013723     0.155130    -0.286431
H275     H      0.155130    -0.286431    -0.013723
H276     H     -0.441561     0.344870     0.331147
H277     H      0.441561     0.286431    -0.227292
H278     H      0.013723    -0.331147    -0.272708
H279     H      0.486277     0.213569    -0.344870
H280     H      0.058439    -0.168853    -0.155130
H281     H      0.286431    -0.227292     0.441561
H282     H     -0.227292     0.441561     0.286431
H283     H     -0.168853    -0.155130     0.058439
H284     H     -0.272708     0.013723    -0.331147
H285     H     -0.331147    -0.272708     0.013723
H286     H     -0.344870     0.486277     0.213569
H287     H      0.213569    -0.344870     0.486277
H288     H     -0.155130     0.058439    -0.168853
H289     H     -0.115115    -0.024644     0.408782
H290     H      0.066575     0.476104     0.091218
H291     H     -0.384885     0.023896     0.090471
H292     H      0.433425    -0.475356     0.409529
H293     H      0.408782    -0.115115    -0.024644
H294     H     -0.024644     0.408782    -0.115115
H295     H      0.409529     0.433425    -0.475356
H296     H      0.476104     0.091218     0.066575
H297     H      0.091218     0.066575     0.476104
H298     H      0.023896     0.090471    -0.384885
H299     H      0.090471    -0.384885     0.023896
H300     H     -0.475356     0.409529     0.433425
H301     H      0.475356     0.384885    -0.091218
H302     H     -0.023896    -0.433425    -0.408782
H303     H     -0.476104     0.115115    -0.409529
H304     H      0.024644    -0.066575    -0.090471
H305     H      0.384885    -0.091218     0.475356
H306     H     -0.091218     0.475356     0.384885
H307     H     -0.066575    -0.090471     0.024644
H308     H     -0.408782    -0.023896    -0.433425
H309     H     -0.433425    -0.408782    -0.023896
H310     H     -0.409529    -0.476104     0.115115
H311     H      0.115115    -0.409529    -0.476104
H312     H     -0.090471     0.024644    -0.066575
H313     H     -0.107751    -0.051207     0.247964
H314     H      0.200829    -0.355715     0.252036
H315     H     -0.392249    -0.144285     0.056544
H316     H      0.299171    -0.448793     0.443456
H317     H      0.247964    -0.107751    -0.051207
H318     H     -0.051207     0.247964    -0.107751
H319     H      0.443456     0.299171    -0.448793
H320     H     -0.355715     0.252036     0.200829
H321     H      0.252036     0.200829    -0.355715
H322     H     -0.144285     0.056544    -0.392249
H323     H      0.056544    -0.392249    -0.144285
H324     H     -0.448793     0.443456     0.299171
H325     H      0.448793     0.392249    -0.252036
H326     H      0.144285    -0.299171    -0.247964
H327     H      0.355715     0.107751    -0.443456
H328     H      0.051207    -0.200829    -0.056544
H329     H      0.392249    -0.252036     0.448793
H330     H     -0.252036     0.448793     0.392249
H331     H     -0.200829    -0.056544     0.051207
H332     H     -0.247964     0.144285    -0.299171
H333     H     -0.299171    -0.247964     0.144285
H334     H     -0.443456     0.355715     0.107751
H335     H      0.107751    -0.443456     0.355715
H336     H     -0.056544     0.051207    -0.200829
C193     C     -0.230992    -0.089966     0.204810
C194     C      0.205224    -0.435802     0.295190
C195     C     -0.269008    -0.064198     0.141026
C196     C      0.294776    -0.410034     0.358974
C197     C      0.204810    -0.230992    -0.089966
C198     C     -0.089966     0.204810    -0.230992
C199     C      0.358974     0.294776    -0.410034
C200     C     -0.435802     0.295190     0.205224
C201     C      0.295190     0.205224    -0.435802
C202     C     -0.064198     0.141026    -0.269008
C203     C      0.141026    -0.269008    -0.064198
C204     C     -0.410034     0.358974     0.294776
C205     C      0.410034     0.269008    -0.295190
C206     C      0.064198    -0.294776    -0.204810
C207     C      0.435802     0.230992    -0.358974
C208     C      0.089966    -0.205224    -0.141026
C209     C      0.269008    -0.295190     0.410034
C210     C     -0.295190     0.410034     0.269008
C211     C     -0.205224    -0.141026     0.089966
C212     C     -0.204810     0.064198    -0.294776
C213     C     -0.294776    -0.204810     0.064198
C214     C     -0.358974     0.435802     0.230992
C215     C      0.230992    -0.358974     0.435802
C216     C     -0.141026     0.089966    -0.205224
C217     C     -0.156812    -0.051671     0.266015
C218     C      0.182314    -0.422827     0.233985
C219     C     -0.343188    -0.077173     0.105141
C220     C      0.317686    -0.448329     0.394859
C221     C      0.266015    -0.156812    -0.051671
C222     C     -0.051671     0.266015    -0.156812
C223     C      0.394859     0.317686    -0.448329
C224     C     -0.422827     0.233985     0.182314
C225     C      0.233985     0.182314    -0.422827
C226     C     -0.077173     0.105141    -0.343188
C227     C      0.105141    -0.343188    -0.077173
C228     C     -0.448329     0.394859     0.317686
C229     C      0.448329     0.343188    -0.233985
C230     C      0.077173    -0.317686    -0.266015
C231     C      0.422827     0.156812    -0.394859
C232     C      0.051671    -0.182314    -0.105141
C233     C      0.343188    -0.233985     0.448329
C234     C     -0.233985     0.448329     0.343188
C235     C     -0.182314    -0.105141     0.051671
C236     C     -0.266015     0.077173    -0.317686
C237     C     -0.317686    -0.266015     0.077173
C238     C     -0.394859     0.422827     0.156812
C239     C      0.156812    -0.394859     0.422827
C240     C     -0.105141     0.051671    -0.182314
C241     C     -0.216524    -0.099172     0.174348
C242     C      0.226480    -0.390872     0.325652
C243     C     -0.283476    -0.109128     0.117352
C244     C      0.273520    -0.400828     0.382648
C245     C      0.174348    -0.216524    -0.099172
C246     C     -0.099172     0.174348    -0.216524
C247     C      0.382648     0.273520    -0.400828
C248     C     -0.390872     0.325652     0.226480
C249     C      0.325652     0.226480    -0.390872
C250     C     -0.109128     0.117352    -0.283476
C251     C      0.117352    -0.283476    -0.109128
C252     C     -0.400828     0.382648     0.273520
C253     C      0.400828     0.283476    -0.325652
C254     C      0.109128    -0.273520    -0.174348
C255     C      0.390872     0.216524    -0.382648
C256     C      0.099172    -0.226480    -0.117352
C257     C      0.283476    -0.325652     0.400828
C258     C     -0.325652     0.400828     0.283476
C259     C     -0.226480    -0.117352     0.099172
C260     C     -0.174348     0.109128    -0.273520
C261     C     -0.273520    -0.174348     0.109128
C262     C     -0.382648     0.390872     0.216524
C263     C      0.216524    -0.382648     0.390872
C264     C     -0.117352     0.099172    -0.226480
C265     C     -0.171767    -0.084583     0.190700
C266     C      0.224717    -0.362466     0.309300
C267     C     -0.328233    -0.137534     0.087183
C268     C      0.275283    -0.415417     0.412817
C269     C      0.190700    -0.171767    -0.084583
C270     C     -0.084583     0.190700    -0.171767
C271     C      0.412817     0.275283    -0.415417
C272     C     -0.362466     0.309300     0.224717
C273     C      0.309300     0.224717    -0.362466
C274     C     -0.137534     0.087183    -0.328233
C275     C      0.087183    -0.328233    -0.137534
C276     C     -0.415417     0.412817     0.275283
C277     C      0.415417     0.328233    -0.309300
C278     C      0.137534    -0.275283    -0.190700
C279     C      0.362466     0.171767    -0.412817
C280     C      0.084583    -0.224717    -0.087183
C281     C      0.328233    -0.309300     0.415417
C282     C     -0.309300     0.415417     0.328233
C283     C     -0.224717    -0.087183     0.084583
C284     C     -0.190700     0.137534    -0.275283
C285     C     -0.275283    -0.190700     0.137534
C286     C     -0.412817     0.362466     0.171767
C287     C      0.171767    -0.412817     0.362466
C288     C     -0.087183     0.084583    -0.224717
C289     C     -0.063468     0.019621     0.406266
C290     C      0.113354    -0.469734     0.093734
C291     C     -0.436532    -0.030266     0.083089
C292     C      0.386646     0.480379     0.416911
C293     C      0.406266    -0.063468     0.019621
C294     C      0.019621     0.406266    -0.063468
C295     C      0.416911     0.386646     0.480379
C296     C     -0.469734     0.093734     0.113354
C297     C      0.093734     0.113354    -0.469734
C298     C     -0.030266     0.083089    -0.436532
C299     C      0.083089    -0.436532    -0.030266
C300     C      0.480379     0.416911     0.386646
C301     C     -0.480379     0.436532    -0.093734
C302     C      0.030266    -0.386646    -0.406266
C303     C      0.469734     0.063468    -0.416911
C304     C     -0.019621    -0.113354    -0.083089
C305     C      0.436532    -0.093734    -0.480379
C306     C     -0.093734    -0.480379     0.436532
C307     C     -0.113354    -0.083089    -0.019621
C308     C     -0.406266     0.030266    -0.386646
C309     C     -0.386646    -0.406266     0.030266
C310     C     -0.416911     0.469734     0.063468
C311     C      0.063468    -0.416911     0.469734
C312     C     -0.083089    -0.019621    -0.113354
C313     C     -0.083562     0.010907     0.331806
C314     C      0.179101    -0.415368     0.168194
C315     C     -0.416438    -0.084632     0.094469
C316     C      0.320899     0.489093     0.405531
C317     C      0.331806    -0.083562     0.010907
C318     C      0.010907     0.331806    -0.083562
C319     C      0.405531     0.320899     0.489093
C320     C     -0.415368     0.168194     0.179101
C321     C      0.168194     0.179101    -0.415368
C322     C     -0.084632     0.094469    -0.416438
C323     C      0.094469    -0.416438    -0.084632
C324     C      0.489093     0.405531     0.320899
C325     C     -0.489093     0.416438    -0.168194
C326     C      0.084632    -0.320899    -0.331806
C327     C      0.415368     0.083562    -0.405531
C328     C     -0.010907    -0.179101    -0.094469
C329     C      0.416438    -0.168194    -0.489093
C330     C     -0.168194    -0.489093     0.416438
C331     C     -0.179101    -0.094469    -0.010907
C332     C     -0.331806     0.084632    -0.320899
C333     C     -0.320899    -0.331806     0.084632
C334     C     -0.405531     0.415368     0.083562
C335     C      0.083562    -0.405531     0.415368
C336     C     -0.094469    -0.010907    -0.179101
C337     C     -0.201795    -0.066690     0.249700
C338     C      0.183610    -0.451495     0.250300
C339     C     -0.298205    -0.048505     0.135104
C340     C      0.316390    -0.433310     0.364896
C341     C      0.249700    -0.201795    -0.066690
C342     C     -0.066690     0.249700    -0.201795
C343     C      0.364896     0.316390    -0.433310
C344     C     -0.451495     0.250300     0.183610
C345     C      0.250300     0.183610    -0.451495
C346     C     -0.048505     0.135104    -0.298205
C347     C      0.135104    -0.298205    -0.048505
C348     C     -0.433310     0.364896     0.316390
C349     C      0.433310     0.298205    -0.250300
C350     C      0.048505    -0.316390    -0.249700
C351     C      0.451495     0.201795    -0.364896
C352     C      0.066690    -0.183610    -0.135104
C353     C      0.298205    -0.250300     0.433310
C354     C     -0.250300     0.433310     0.298205
C355     C     -0.183610    -0.135104     0.066690
C356     C     -0.249700     0.048505    -0.316390
C357     C     -0.316390    -0.249700     0.048505
C358     C     -0.364896     0.451495     0.201795
C359     C      0.201795    -0.364896     0.451495
C360     C     -0.135104     0.066690    -0.183610
C361     C     -0.125577    -0.026264     0.313573
C362     C      0.160163    -0.439150     0.186427
C363     C     -0.374423    -0.060850     0.099313
C364     C      0.339837    -0.473736     0.400687
C365     C      0.313573    -0.125577    -0.026264
C366     C     -0.026264     0.313573    -0.125577
C367     C      0.400687     0.339837    -0.473736
C368     C     -0.439150     0.186427     0.160163
C369     C      0.186427     0.160163    -0.439150
C370     C     -0.060850     0.099313    -0.374423
C371     C      0.099313    -0.374423    -0.060850
C372     C     -0.473736     0.400687     0.339837
C373     C      0.473736     0.374423    -0.186427
C374     C      0.060850    -0.339837    -0.313573
C375     C      0.439150     0.125577    -0.400687
C376     C      0.026264    -0.160163    -0.099313
C377     C      0.374423    -0.186427     0.473736
C378     C     -0.186427     0.473736     0.374423
C379     C     -0.160163    -0.099313     0.026264
C380     C     -0.313573     0.060850    -0.339837
C381     C     -0.339837    -0.313573     0.060850
C382     C     -0.400687     0.439150     0.125577
C383     C      0.125577    -0.400687     0.439150
C384     C     -0.099313     0.026264    -0.160163
C385     C     -0.142482    -0.061579     0.235663
C386     C      0.202758    -0.378145     0.264337
C387     C     -0.357518    -0.121855     0.080903
C388     C      0.297242    -0.438421     0.419097
C389     C      0.235663    -0.142482    -0.061579
C390     C     -0.061579     0.235663    -0.142482
C391     C      0.419097     0.297242    -0.438421
C392     C     -0.378145     0.264337     0.202758
C393     C      0.264337     0.202758    -0.378145
C394     C     -0.121855     0.080903    -0.357518
C395     C      0.080903    -0.357518    -0.121855
C396     C     -0.438421     0.419097     0.297242
C397     C      0.438421     0.357518    -0.264337
C398     C      0.121855    -0.297242    -0.235663
C399     C      0.378145     0.142482    -0.419097
C400     C      0.061579    -0.202758    -0.080903
C401     C      0.357518    -0.264337     0.438421
C402     C     -0.264337     0.438421     0.357518
C403     C     -0.202758    -0.080903     0.061579
C404     C     -0.235663     0.121855    -0.297242
C405     C     -0.297242    -0.235663     0.121855
C406     C     -0.419097     0.378145     0.142482
C407     C      0.142482    -0.419097     0.378145
C408     C     -0.080903     0.061579    -0.202758
C409     C     -0.105564    -0.014276     0.387711
C410     C      0.098013    -0.493275     0.112289
C411     C     -0.394436    -0.006725     0.091288
C412     C      0.401987    -0.485724     0.408712
C413     C      0.387711    -0.105564    -0.014276
C414     C     -0.014276     0.387711    -0.105564
C415     C      0.408712     0.401987    -0.485724
C416     C     -0.493275     0.112289     0.098013
C417     C      0.112289     0.098013    -0.493275
C418     C     -0.006725     0.091288    -0.394436
C419     C      0.091288    -0.394436    -0.006725
C420     C     -0.485724     0.408712     0.401987
C421     C      0.485724     0.394436    -0.112289
C422     C      0.006725    -0.401987    -0.387711
C423     C      0.493275     0.105564    -0.408712
C424     C      0.014276    -0.098013    -0.091288
C425     C      0.394436    -0.112289     0.485724
C426     C     -0.112289     0.485724     0.394436
C427     C     -0.098013    -0.091288     0.014276
C428     C     -0.387711     0.006725    -0.401987
C429     C     -0.401987    -0.387711     0.006725
C430     C     -0.408712     0.493275     0.105564
C431     C      0.105564    -0.408712     0.493275
C432     C     -0.091288     0.014276    -0.098013
C433     C     -0.052315     0.033057     0.377942
C434     C      0.155115    -0.430257     0.122058
C435     C     -0.447685    -0.069743     0.085372
C436     C      0.344885     0.466943     0.414628
C437     C      0.377942    -0.052315     0.033057
C438     C      0.033057     0.377942    -0.052315
C439     C      0.414628     0.344885     0.466943
C440     C     -0.430257     0.122058     0.155115
C441     C      0.122058     0.155115    -0.430257
C442     C     -0.069743     0.085372    -0.447685
C443     C      0.085372    -0.447685    -0.069743
C444     C      0.466943     0.414628     0.344885
C445     C     -0.466943     0.447685    -0.122058
C446     C      0.069743    -0.344885    -0.377942
C447     C      0.430257     0.052315    -0.414628
C448     C     -0.033057    -0.155115    -0.085372
C449     C      0.447685    -0.122058    -0.466943
C450     C     -0.122058    -0.466943     0.447685
C451     C     -0.155115    -0.085372    -0.033057
C452     C     -0.377942     0.069743    -0.344885
C453     C     -0.344885    -0.377942     0.069743
C454     C     -0.414628     0.430257     0.052315
C455     C      0.052315    -0.414628     0.430257
C456     C     -0.085372    -0.033057    -0.155115
B1       B     -0.030207     0.042214     0.455391
B2       B      0.086823    -0.485598     0.044609
B3       B     -0.469793    -0.014402     0.072420
B4       B      0.413177     0.457786     0.427580
B5       B      0.455391    -0.030207     0.042214
B6       B      0.042214     0.455391    -0.030207
B7       B      0.427580     0.413177     0.457786
B8       B     -0.485598     0.044609     0.086823
B9       B      0.044609     0.086823    -0.485598
B10      B     -0.014402     0.072420    -0.469793
B11      B      0.072420    -0.469793    -0.014402
B12      B      0.457786     0.427580     0.413177
B13      B     -0.457786     0.469793    -0.044609
B14      B      0.014402    -0.413177    -0.455391
B15      B      0.485598     0.030207    -0.427580
B16      B     -0.042214    -0.086823    -0.072420
B17      B      0.469793    -0.044609    -0.457786
B18      B     -0.044609    -0.457786     0.469793
B19      B     -0.086823    -0.072420    -0.042214
B20      B     -0.455391     0.014402    -0.413177
B21      B     -0.413177    -0.455391     0.014402
B22      B     -0.427580     0.485598     0.030207
B23      B      0.030207    -0.427580     0.485598
B24      B     -0.072420    -0.042214    -0.086823
C457     C     -0.135835    -0.037222     0.342203
C458     C      0.120575    -0.478038     0.157797
C459     C     -0.364165    -0.021962     0.098613
C460     C      0.379425    -0.462778     0.401387
C461     C      0.342203    -0.135835    -0.037222
C462     C     -0.037222     0.342203    -0.135835
C463     C      0.401387     0.379425    -0.462778
C464     C     -0.478038     0.157797     0.120575
C465     C      0.157797     0.120575    -0.478038
C466     C     -0.021962     0.098613    -0.364165
C467     C      0.098613    -0.364165    -0.021962
C468     C     -0.462778     0.401387     0.379425
C469     C      0.462778     0.364165    -0.157797
C470     C      0.021962    -0.379425    -0.342203
C471     C      0.478038     0.135835    -0.401387
C472     C      0.037222    -0.120575    -0.098613
C473     C      0.364165    -0.157797     0.462778
C474     C     -0.157797     0.462778     0.364165
C475     C     -0.120575    -0.098613     0.037222
C476     C     -0.342203     0.021962    -0.379425
C477     C     -0.379425    -0.342203     0.021962
C478     C     -0.401387     0.478038     0.135835
C479     C      0.135835    -0.401387     0.478038
C480     C     -0.098613     0.037222    -0.120575
C481     C     -0.375000     0.375000     0.250000
C482     C     -0.125000     0.125000    -0.250000
C483     C      0.250000    -0.375000     0.375000
C484     C      0.375000     0.250000    -0.375000
C485     C     -0.250000    -0.125000     0.125000
C486     C      0.125000    -0.250000    -0.125000
