data_Staggered_MSUCOF-4-CoCp_BULK_OPTGEOM_DZ_optimized

_cell_length_a    37.298640
_cell_length_b    37.298640
_cell_length_c    37.298640
_cell_angle_alpha 109.471221
_cell_angle_beta  109.471221
_cell_angle_gamma 109.471221

_symmetry_space_group_name_H-M  'P 1'
_symmetry_Int_Tables_number     1

loop_
_symmetry_equiv_pos_as_xyz
  'x, y, z'

loop_
_atom_site_label
_atom_site_type_symbol
_atom_site_fract_x
_atom_site_fract_y
_atom_site_fract_z
H1       H      0.052307     0.009914     0.331328
H2       H      0.178585    -0.279021     0.168672
H3       H      0.447693    -0.220979    -0.042393
H4       H      0.321415     0.490086    -0.457607
H5       H      0.331328     0.052307     0.009914
H6       H      0.009914     0.331328     0.052307
H7       H     -0.457607     0.321415     0.490086
H8       H     -0.279021     0.168672     0.178585
H9       H      0.168672     0.178585    -0.279021
H10      H     -0.220979    -0.042393     0.447693
H11      H     -0.042393     0.447693    -0.220979
H12      H      0.490086    -0.457607     0.321415
H13      H     -0.490086    -0.447693    -0.168672
H14      H      0.220979    -0.321415    -0.331328
H15      H      0.279021    -0.052307     0.457607
H16      H     -0.009914    -0.178585     0.042393
H17      H     -0.447693    -0.168672    -0.490086
H18      H     -0.168672    -0.490086    -0.447693
H19      H     -0.178585     0.042393    -0.009914
H20      H     -0.331328     0.220979    -0.321415
H21      H     -0.321415    -0.331328     0.220979
H22      H      0.457607     0.279021    -0.052307
H23      H     -0.052307     0.457607     0.279021
H24      H      0.042393    -0.009914    -0.178585
H25      H     -0.078134    -0.088239     0.293878
H26      H      0.117883    -0.372012     0.206122
H27      H     -0.421866    -0.127988    -0.010105
H28      H      0.382117    -0.411761    -0.489895
H29      H      0.293878    -0.078134    -0.088239
H30      H     -0.088239     0.293878    -0.078134
H31      H     -0.489895     0.382117    -0.411761
H32      H     -0.372012     0.206122     0.117883
H33      H      0.206122     0.117883    -0.372012
H34      H     -0.127988    -0.010105    -0.421866
H35      H     -0.010105    -0.421866    -0.127988
H36      H     -0.411761    -0.489895     0.382117
H37      H      0.411761     0.421866    -0.206122
H38      H      0.127988    -0.382117    -0.293878
H39      H      0.372012     0.078134     0.489895
H40      H      0.088239    -0.117883     0.010105
H41      H      0.421866    -0.206122     0.411761
H42      H     -0.206122     0.411761     0.421866
H43      H     -0.117883     0.010105     0.088239
H44      H     -0.293878     0.127988    -0.382117
H45      H     -0.382117    -0.293878     0.127988
H46      H      0.489895     0.372012     0.078134
H47      H      0.078134     0.489895     0.372012
H48      H      0.010105     0.088239    -0.117883
H49      H     -0.028016    -0.047035     0.381780
H50      H      0.071185    -0.409795     0.118220
H51      H     -0.471984    -0.090205    -0.019020
H52      H      0.428815    -0.452965    -0.480980
H53      H      0.381780    -0.028016    -0.047035
H54      H     -0.047035     0.381780    -0.028016
H55      H     -0.480980     0.428815    -0.452965
H56      H     -0.409795     0.118220     0.071185
H57      H      0.118220     0.071185    -0.409795
H58      H     -0.090205    -0.019020    -0.471984
H59      H     -0.019020    -0.471984    -0.090205
H60      H     -0.452965    -0.480980     0.428815
H61      H      0.452965     0.471984    -0.118220
H62      H      0.090205    -0.428815    -0.381780
H63      H      0.409795     0.028016     0.480980
H64      H      0.047035    -0.071185     0.019020
H65      H      0.471984    -0.118220     0.452965
H66      H     -0.118220     0.452965     0.471984
H67      H     -0.071185     0.019020     0.047035
H68      H     -0.381780     0.090205    -0.428815
H69      H     -0.428815    -0.381780     0.090205
H70      H      0.480980     0.409795     0.028016
H71      H      0.028016     0.480980     0.409795
H72      H      0.019020     0.047035    -0.071185
H73      H     -0.028821    -0.051884     0.262906
H74      H      0.185210    -0.291727     0.237094
H75      H     -0.471179    -0.208273    -0.023063
H76      H      0.314790    -0.448116    -0.476937
H77      H      0.262906    -0.028821    -0.051884
H78      H     -0.051884     0.262906    -0.028821
H79      H     -0.476937     0.314790    -0.448116
H80      H     -0.291727     0.237094     0.185210
H81      H      0.237094     0.185210    -0.291727
H82      H     -0.208273    -0.023063    -0.471179
H83      H     -0.023063    -0.471179    -0.208273
H84      H     -0.448116    -0.476937     0.314790
H85      H      0.448116     0.471179    -0.237094
H86      H      0.208273    -0.314790    -0.262906
H87      H      0.291727     0.028821     0.476937
H88      H      0.051884    -0.185210     0.023063
H89      H      0.471179    -0.237094     0.448116
H90      H     -0.237094     0.448116     0.471179
H91      H     -0.185210     0.023063     0.051884
H92      H     -0.262906     0.208273    -0.314790
H93      H     -0.314790    -0.262906     0.208273
H94      H      0.476937     0.291727     0.028821
H95      H      0.028821     0.476937     0.291727
H96      H      0.023063     0.051884    -0.185210
C1       C      0.025007    -0.010466     0.332940
C2       C      0.156595    -0.307933     0.167060
C3       C      0.474993    -0.192067    -0.035472
C4       C      0.343405    -0.489534    -0.464528
C5       C      0.332940     0.025007    -0.010466
C6       C     -0.010466     0.332940     0.025007
C7       C     -0.464528     0.343405    -0.489534
C8       C     -0.307933     0.167060     0.156595
C9       C      0.167060     0.156595    -0.307933
C10      C     -0.192067    -0.035472     0.474993
C11      C     -0.035472     0.474993    -0.192067
C12      C     -0.489534    -0.464528     0.343405
C13      C      0.489534    -0.474993    -0.167060
C14      C      0.192067    -0.343405    -0.332940
C15      C      0.307933    -0.025007     0.464528
C16      C      0.010466    -0.156595     0.035472
C17      C     -0.474993    -0.167060     0.489534
C18      C     -0.167060     0.489534    -0.474993
C19      C     -0.156595     0.035472     0.010466
C20      C     -0.332940     0.192067    -0.343405
C21      C     -0.343405    -0.332940     0.192067
C22      C      0.464528     0.307933    -0.025007
C23      C     -0.025007     0.464528     0.307933
C24      C      0.035472     0.010466    -0.156595
C25      C      0.024643    -0.008086     0.371716
C26      C      0.120198    -0.347073     0.128284
C27      C      0.475357    -0.152927    -0.032729
C28      C      0.379802    -0.491914    -0.467271
C29      C      0.371716     0.024643    -0.008086
C30      C     -0.008086     0.371716     0.024643
C31      C     -0.467271     0.379802    -0.491914
C32      C     -0.347073     0.128284     0.120198
C33      C      0.128284     0.120198    -0.347073
C34      C     -0.152927    -0.032729     0.475357
C35      C     -0.032729     0.475357    -0.152927
C36      C     -0.491914    -0.467271     0.379802
C37      C      0.491914    -0.475357    -0.128284
C38      C      0.152927    -0.379802    -0.371716
C39      C      0.347073    -0.024643     0.467271
C40      C      0.008086    -0.120198     0.032729
C41      C     -0.475357    -0.128284     0.491914
C42      C     -0.128284     0.491914    -0.475357
C43      C     -0.120198     0.032729     0.008086
C44      C     -0.371716     0.152927    -0.379802
C45      C     -0.379802    -0.371716     0.152927
C46      C      0.467271     0.347073    -0.024643
C47      C     -0.024643     0.467271     0.347073
C48      C      0.032729     0.008086    -0.120198
C49      C     -0.017919    -0.042591     0.297101
C50      C      0.160307    -0.315020     0.202899
C51      C     -0.482081    -0.184980    -0.024673
C52      C      0.339693    -0.457409    -0.475327
C53      C      0.297101    -0.017919    -0.042591
C54      C     -0.042591     0.297101    -0.017919
C55      C     -0.475327     0.339693    -0.457409
C56      C     -0.315020     0.202899     0.160307
C57      C      0.202899     0.160307    -0.315020
C58      C     -0.184980    -0.024673    -0.482081
C59      C     -0.024673    -0.482081    -0.184980
C60      C     -0.457409    -0.475327     0.339693
C61      C      0.457409     0.482081    -0.202899
C62      C      0.184980    -0.339693    -0.297101
C63      C      0.315020     0.017919     0.475327
C64      C      0.042591    -0.160307     0.024673
C65      C      0.482081    -0.202899     0.457409
C66      C     -0.202899     0.457409     0.482081
C67      C     -0.160307     0.024673     0.042591
C68      C     -0.297101     0.184980    -0.339693
C69      C     -0.339693    -0.297101     0.184980
C70      C      0.475327     0.315020     0.017919
C71      C      0.017919     0.475327     0.315020
C72      C      0.024673     0.042591    -0.160307
Co1      Co    -0.023072     0.004271     0.341190
Co2      Co     0.163081    -0.364262     0.158810
Co3      Co    -0.476928    -0.135738     0.027344
Co4      Co     0.336919     0.495729     0.472656
Co5      Co     0.341190    -0.023072     0.004271
Co6      Co     0.004271     0.341190    -0.023072
Co7      Co     0.472656     0.336919     0.495729
Co8      Co    -0.364262     0.158810     0.163081
Co9      Co     0.158810     0.163081    -0.364262
Co10     Co    -0.135738     0.027344    -0.476928
Co11     Co     0.027344    -0.476928    -0.135738
Co12     Co     0.495729     0.472656     0.336919
Co13     Co    -0.495729     0.476928    -0.158810
Co14     Co     0.135738    -0.336919    -0.341190
Co15     Co     0.364262     0.023072    -0.472656
Co16     Co    -0.004271    -0.163081    -0.027344
Co17     Co     0.476928    -0.158810    -0.495729
Co18     Co    -0.158810    -0.495729     0.476928
Co19     Co    -0.163081    -0.027344    -0.004271
Co20     Co    -0.341190     0.135738    -0.336919
Co21     Co    -0.336919    -0.341190     0.135738
Co22     Co    -0.472656     0.364262     0.023072
Co23     Co     0.023072    -0.472656     0.364262
Co24     Co    -0.027344    -0.004271    -0.163081
H97      H      0.019794     0.085909     0.417441
H98      H      0.168468    -0.397646     0.082559
H99      H      0.480206    -0.102354     0.066115
H100     H      0.331532     0.414091     0.433885
H101     H      0.417441     0.019794     0.085909
H102     H      0.085909     0.417441     0.019794
H103     H      0.433885     0.331532     0.414091
H104     H     -0.397646     0.082559     0.168468
H105     H      0.082559     0.168468    -0.397646
H106     H     -0.102354     0.066115     0.480206
H107     H      0.066115     0.480206    -0.102354
H108     H      0.414091     0.433885     0.331532
H109     H     -0.414091    -0.480206    -0.082559
H110     H      0.102354    -0.331532    -0.417441
H111     H      0.397646    -0.019794    -0.433885
H112     H     -0.085909    -0.168468    -0.066115
H113     H     -0.480206    -0.082559    -0.414091
H114     H     -0.082559    -0.414091    -0.480206
H115     H     -0.168468    -0.066115    -0.085909
H116     H     -0.417441     0.102354    -0.331532
H117     H     -0.331532    -0.417441     0.102354
H118     H     -0.433885     0.397646    -0.019794
H119     H     -0.019794    -0.433885     0.397646
H120     H     -0.066115    -0.085909    -0.168468
C73      C     -0.043886    -0.062611     0.313340
C74      C      0.124049    -0.357226     0.186660
C75      C     -0.456114    -0.142774    -0.018725
C76      C      0.375951    -0.437389    -0.481275
C77      C      0.313340    -0.043886    -0.062611
C78      C     -0.062611     0.313340    -0.043886
C79      C     -0.481275     0.375951    -0.437389
C80      C     -0.357226     0.186660     0.124049
C81      C      0.186660     0.124049    -0.357226
C82      C     -0.142774    -0.018725    -0.456114
C83      C     -0.018725    -0.456114    -0.142774
C84      C     -0.437389    -0.481275     0.375951
C85      C      0.437389     0.456114    -0.186660
C86      C      0.142774    -0.375951    -0.313340
C87      C      0.357226     0.043886     0.481275
C88      C      0.062611    -0.124049     0.018725
C89      C      0.456114    -0.186660     0.437389
C90      C     -0.186660     0.437389     0.456114
C91      C     -0.124049     0.018725     0.062611
C92      C     -0.313340     0.142774    -0.375951
C93      C     -0.375951    -0.313340     0.142774
C94      C      0.481275     0.357226     0.043886
C95      C      0.043886     0.481275     0.357226
C96      C      0.018725     0.062611    -0.124049
H121     H      0.007633     0.085239     0.341549
H122     H      0.243690    -0.333916     0.158451
H123     H      0.492367    -0.166084     0.077606
H124     H      0.256310     0.414761     0.422394
H125     H      0.341549     0.007633     0.085239
H126     H      0.085239     0.341549     0.007633
H127     H      0.422394     0.256310     0.414761
H128     H     -0.333916     0.158451     0.243690
H129     H      0.158451     0.243690    -0.333916
H130     H     -0.166084     0.077606     0.492367
H131     H      0.077606     0.492367    -0.166084
H132     H      0.414761     0.422394     0.256310
H133     H     -0.414761    -0.492367    -0.158451
H134     H      0.166084    -0.256310    -0.341549
H135     H      0.333916    -0.007633    -0.422394
H136     H     -0.085239    -0.243690    -0.077606
H137     H     -0.492367    -0.158451    -0.414761
H138     H     -0.158451    -0.414761    -0.492367
H139     H     -0.243690    -0.077606    -0.085239
H140     H     -0.341549     0.166084    -0.256310
H141     H     -0.256310    -0.341549     0.166084
H142     H     -0.422394     0.333916    -0.007633
H143     H     -0.007633    -0.422394     0.333916
H144     H     -0.077606    -0.085239    -0.243690
C97      C     -0.058729     0.027860     0.311644
C98      C      0.216216    -0.370372     0.188356
C99      C     -0.441271    -0.129628     0.086588
C100     C      0.283784     0.472140     0.413412
C101     C      0.311644    -0.058729     0.027860
C102     C      0.027860     0.311644    -0.058729
C103     C      0.413412     0.283784     0.472140
C104     C     -0.370372     0.188356     0.216216
C105     C      0.188356     0.216216    -0.370372
C106     C     -0.129628     0.086588    -0.441271
C107     C      0.086588    -0.441271    -0.129628
C108     C      0.472140     0.413412     0.283784
C109     C     -0.472140     0.441271    -0.188356
C110     C      0.129628    -0.283784    -0.311644
C111     C      0.370372     0.058729    -0.413412
C112     C     -0.027860    -0.216216    -0.086588
C113     C      0.441271    -0.188356    -0.472140
C114     C     -0.188356    -0.472140     0.441271
C115     C     -0.216216    -0.086588    -0.027860
C116     C     -0.311644     0.129628    -0.283784
C117     C     -0.283784    -0.311644     0.129628
C118     C     -0.413412     0.370372     0.058729
C119     C      0.058729    -0.413412     0.370372
C120     C     -0.086588    -0.027860    -0.216216
C121     C     -0.009688     0.063604     0.385517
C122     C      0.178087    -0.395205     0.114483
C123     C     -0.490312    -0.104795     0.073292
C124     C      0.321913     0.436396     0.426708
C125     C      0.385517    -0.009688     0.063604
C126     C      0.063604     0.385517    -0.009688
C127     C      0.426708     0.321913     0.436396
C128     C     -0.395205     0.114483     0.178087
C129     C      0.114483     0.178087    -0.395205
C130     C     -0.104795     0.073292    -0.490312
C131     C      0.073292    -0.490312    -0.104795
C132     C      0.436396     0.426708     0.321913
C133     C     -0.436396     0.490312    -0.114483
C134     C      0.104795    -0.321913    -0.385517
C135     C      0.395205     0.009688    -0.426708
C136     C     -0.063604    -0.178087    -0.073292
C137     C      0.490312    -0.114483    -0.436396
C138     C     -0.114483    -0.436396     0.490312
C139     C     -0.178087    -0.073292    -0.063604
C140     C     -0.385517     0.104795    -0.321913
C141     C     -0.321913    -0.385517     0.104795
C142     C     -0.426708     0.395205     0.009688
C143     C      0.009688    -0.426708     0.395205
C144     C     -0.073292    -0.063604    -0.178087
C145     C     -0.016380     0.063530     0.345730
C146     C      0.217800    -0.362110     0.154270
C147     C     -0.483620    -0.137890     0.079910
C148     C      0.282200     0.436470     0.420090
C149     C      0.345730    -0.016380     0.063530
C150     C      0.063530     0.345730    -0.016380
C151     C      0.420090     0.282200     0.436470
C152     C     -0.362110     0.154270     0.217800
C153     C      0.154270     0.217800    -0.362110
C154     C     -0.137890     0.079910    -0.483620
C155     C      0.079910    -0.483620    -0.137890
C156     C      0.436470     0.420090     0.282200
C157     C     -0.436470     0.483620    -0.154270
C158     C      0.137890    -0.282200    -0.345730
C159     C      0.362110     0.016380    -0.420090
C160     C     -0.063530    -0.217800    -0.079910
C161     C      0.483620    -0.154270    -0.436470
C162     C     -0.154270    -0.436470     0.483620
C163     C     -0.217800    -0.079910    -0.063530
C164     C     -0.345730     0.137890    -0.282200
C165     C     -0.282200    -0.345730     0.137890
C166     C     -0.420090     0.362110     0.016380
C167     C      0.016380    -0.420090     0.362110
C168     C     -0.079910    -0.063530    -0.217800
H145     H     -0.073475     0.019206     0.277426
H146     H      0.241780    -0.350901     0.222574
H147     H     -0.426525    -0.149099     0.092681
H148     H      0.258220     0.480794     0.407319
H149     H      0.277426    -0.073475     0.019206
H150     H      0.019206     0.277426    -0.073475
H151     H      0.407319     0.258220     0.480794
H152     H     -0.350901     0.222574     0.241780
H153     H      0.222574     0.241780    -0.350901
H154     H     -0.149099     0.092681    -0.426525
H155     H      0.092681    -0.426525    -0.149099
H156     H      0.480794     0.407319     0.258220
H157     H     -0.480794     0.426525    -0.222574
H158     H      0.149099    -0.258220    -0.277426
H159     H      0.350901     0.073475    -0.407319
H160     H     -0.019206    -0.241780    -0.092681
H161     H      0.426525    -0.222574    -0.480794
H162     H     -0.222574    -0.480794     0.426525
H163     H     -0.241780    -0.092681    -0.019206
H164     H     -0.277426     0.149099    -0.258220
H165     H     -0.258220    -0.277426     0.149099
H166     H     -0.407319     0.350901     0.073475
H167     H      0.073475    -0.407319     0.350901
H168     H     -0.092681    -0.019206    -0.241780
H169     H      0.052041     0.014087     0.405030
H170     H      0.109057    -0.352989     0.094970
H171     H      0.447959    -0.147011    -0.037954
H172     H      0.390943     0.485913    -0.462046
H173     H      0.405030     0.052041     0.014087
H174     H      0.014087     0.405030     0.052041
H175     H     -0.462046     0.390943     0.485913
H176     H     -0.352989     0.094970     0.109057
H177     H      0.094970     0.109057    -0.352989
H178     H     -0.147011    -0.037954     0.447959
H179     H     -0.037954     0.447959    -0.147011
H180     H      0.485913    -0.462046     0.390943
H181     H     -0.485913    -0.447959    -0.094970
H182     H      0.147011    -0.390943    -0.405030
H183     H      0.352989    -0.052041     0.462046
H184     H     -0.014087    -0.109057     0.037954
H185     H     -0.447959    -0.094970    -0.485913
H186     H     -0.094970    -0.485913    -0.447959
H187     H     -0.109057     0.037954    -0.014087
H188     H     -0.405030     0.147011    -0.390943
H189     H     -0.390943    -0.405030     0.147011
H190     H      0.462046     0.352989    -0.052041
H191     H     -0.052041     0.462046     0.352989
H192     H      0.037954    -0.014087    -0.109057
O1       O      0.014662     0.062052     0.470518
O2       O      0.091534    -0.455856     0.029482
O3       O      0.485338    -0.044144     0.047390
O4       O      0.408466     0.437948     0.452610
O5       O      0.470518     0.014662     0.062052
O6       O      0.062052     0.470518     0.014662
O7       O      0.452610     0.408466     0.437948
O8       O     -0.455856     0.029482     0.091534
O9       O      0.029482     0.091534    -0.455856
O10      O     -0.044144     0.047390     0.485338
O11      O      0.047390     0.485338    -0.044144
O12      O      0.437948     0.452610     0.408466
O13      O     -0.437948    -0.485338    -0.029482
O14      O      0.044144    -0.408466    -0.470518
O15      O      0.455856    -0.014662    -0.452610
O16      O     -0.062052    -0.091534    -0.047390
O17      O     -0.485338    -0.029482    -0.437948
O18      O     -0.029482    -0.437948    -0.485338
O19      O     -0.091534    -0.047390    -0.062052
O20      O     -0.470518     0.044144    -0.408466
O21      O     -0.408466    -0.470518     0.044144
O22      O     -0.452610     0.455856    -0.014662
O23      O     -0.014662    -0.452610     0.455856
O24      O     -0.047390    -0.062052    -0.091534
H193     H     -0.159694    -0.091408     0.166949
H194     H      0.241642    -0.326643     0.333051
H195     H     -0.340306    -0.173357     0.068286
H196     H      0.258358    -0.408592     0.431714
H197     H      0.166949    -0.159694    -0.091408
H198     H     -0.091408     0.166949    -0.159694
H199     H      0.431714     0.258358    -0.408592
H200     H     -0.326643     0.333051     0.241642
H201     H      0.333051     0.241642    -0.326643
H202     H     -0.173357     0.068286    -0.340306
H203     H      0.068286    -0.340306    -0.173357
H204     H     -0.408592     0.431714     0.258358
H205     H      0.408592     0.340306    -0.333051
H206     H      0.173357    -0.258358    -0.166949
H207     H      0.326643     0.159694    -0.431714
H208     H      0.091408    -0.241642    -0.068286
H209     H      0.340306    -0.333051     0.408592
H210     H     -0.333051     0.408592     0.340306
H211     H     -0.241642    -0.068286     0.091408
H212     H     -0.166949     0.173357    -0.258358
H213     H     -0.258358    -0.166949     0.173357
H214     H     -0.431714     0.326643     0.159694
H215     H      0.159694    -0.431714     0.326643
H216     H     -0.068286     0.091408    -0.241642
H217     H     -0.167667    -0.063125     0.328958
H218     H      0.107916    -0.496625     0.171042
H219     H     -0.332333    -0.003375     0.104541
H220     H      0.392084    -0.436875     0.395459
H221     H      0.328958    -0.167667    -0.063125
H222     H     -0.063125     0.328958    -0.167667
H223     H      0.395459     0.392084    -0.436875
H224     H     -0.496625     0.171042     0.107916
H225     H      0.171042     0.107916    -0.496625
H226     H     -0.003375     0.104541    -0.332333
H227     H      0.104541    -0.332333    -0.003375
H228     H     -0.436875     0.395459     0.392084
H229     H      0.436875     0.332333    -0.171042
H230     H      0.003375    -0.392084    -0.328958
H231     H      0.496625     0.167667    -0.395459
H232     H      0.063125    -0.107916    -0.104541
H233     H      0.332333    -0.171042     0.436875
H234     H     -0.171042     0.436875     0.332333
H235     H     -0.107916    -0.104541     0.063125
H236     H     -0.328958     0.003375    -0.392084
H237     H     -0.392084    -0.328958     0.003375
H238     H     -0.395459     0.496625     0.167667
H239     H      0.167667    -0.395459     0.496625
H240     H     -0.104541     0.063125    -0.107916
C169     C     -0.017461    -0.041502     0.359356
C170     C      0.099142    -0.376817     0.140644
C171     C     -0.482539    -0.123183    -0.024041
C172     C      0.400858    -0.458498    -0.475959
C173     C      0.359356    -0.017461    -0.041502
C174     C     -0.041502     0.359356    -0.017461
C175     C     -0.475959     0.400858    -0.458498
C176     C     -0.376817     0.140644     0.099142
C177     C      0.140644     0.099142    -0.376817
C178     C     -0.123183    -0.024041    -0.482539
C179     C     -0.024041    -0.482539    -0.123183
C180     C     -0.458498    -0.475959     0.400858
C181     C      0.458498     0.482539    -0.140644
C182     C      0.123183    -0.400858    -0.359356
C183     C      0.376817     0.017461     0.475959
C184     C      0.041502    -0.099142     0.024041
C185     C      0.482539    -0.140644     0.458498
C186     C     -0.140644     0.458498     0.482539
C187     C     -0.099142     0.024041     0.041502
C188     C     -0.359356     0.123183    -0.400858
C189     C     -0.400858    -0.359356     0.123183
C190     C      0.475959     0.376817     0.017461
C191     C      0.017461     0.475959     0.376817
C192     C      0.024041     0.041502    -0.099142
H241     H     -0.264382    -0.098596     0.193610
H242     H      0.207794    -0.457993     0.306390
H243     H     -0.235618    -0.042007     0.165787
H244     H      0.292206    -0.401404     0.334213
H245     H      0.193610    -0.264382    -0.098596
H246     H     -0.098596     0.193610    -0.264382
H247     H      0.334213     0.292206    -0.401404
H248     H     -0.457993     0.306390     0.207794
H249     H      0.306390     0.207794    -0.457993
H250     H     -0.042007     0.165787    -0.235618
H251     H      0.165787    -0.235618    -0.042007
H252     H     -0.401404     0.334213     0.292206
H253     H      0.401404     0.235618    -0.306390
H254     H      0.042007    -0.292206    -0.193610
H255     H      0.457993     0.264382    -0.334213
H256     H      0.098596    -0.207794    -0.165787
H257     H      0.235618    -0.306390     0.401404
H258     H     -0.306390     0.401404     0.235618
H259     H     -0.207794    -0.165787     0.098596
H260     H     -0.193610     0.042007    -0.292206
H261     H     -0.292206    -0.193610     0.042007
H262     H     -0.334213     0.457993     0.264382
H263     H      0.264382    -0.334213     0.457993
H264     H     -0.165787     0.098596    -0.207794
H265     H     -0.211604    -0.057060     0.273155
H266     H      0.169785    -0.484759     0.226845
H267     H     -0.288396    -0.015241     0.154544
H268     H      0.330215    -0.442940     0.345456
H269     H      0.273155    -0.211604    -0.057060
H270     H     -0.057060     0.273155    -0.211604
H271     H      0.345456     0.330215    -0.442940
H272     H     -0.484759     0.226845     0.169785
H273     H      0.226845     0.169785    -0.484759
H274     H     -0.015241     0.154544    -0.288396
H275     H      0.154544    -0.288396    -0.015241
H276     H     -0.442940     0.345456     0.330215
H277     H      0.442940     0.288396    -0.226845
H278     H      0.015241    -0.330215    -0.273155
H279     H      0.484759     0.211604    -0.345456
H280     H      0.057060    -0.169785    -0.154544
H281     H      0.288396    -0.226845     0.442940
H282     H     -0.226845     0.442940     0.288396
H283     H     -0.169785    -0.154544     0.057060
H284     H     -0.273155     0.015241    -0.330215
H285     H     -0.330215    -0.273155     0.015241
H286     H     -0.345456     0.484759     0.211604
H287     H      0.211604    -0.345456     0.484759
H288     H     -0.154544     0.057060    -0.169785
H289     H     -0.115790    -0.022045     0.408751
H290     H      0.069205     0.475459     0.091249
H291     H     -0.384210     0.024541     0.093745
H292     H      0.430795    -0.477955     0.406255
H293     H      0.408751    -0.115790    -0.022045
H294     H     -0.022045     0.408751    -0.115790
H295     H      0.406255     0.430795    -0.477955
H296     H      0.475459     0.091249     0.069205
H297     H      0.091249     0.069205     0.475459
H298     H      0.024541     0.093745    -0.384210
H299     H      0.093745    -0.384210     0.024541
H300     H     -0.477955     0.406255     0.430795
H301     H      0.477955     0.384210    -0.091249
H302     H     -0.024541    -0.430795    -0.408751
H303     H     -0.475459     0.115790    -0.406255
H304     H      0.022045    -0.069205    -0.093745
H305     H      0.384210    -0.091249     0.477955
H306     H     -0.091249     0.477955     0.384210
H307     H     -0.069205    -0.093745     0.022045
H308     H     -0.408751    -0.024541    -0.430795
H309     H     -0.430795    -0.408751    -0.024541
H310     H     -0.406255    -0.475459     0.115790
H311     H      0.115790    -0.406255    -0.475459
H312     H     -0.093745     0.022045    -0.069205
H313     H     -0.107524    -0.052660     0.246178
H314     H      0.201162    -0.353702     0.253822
H315     H     -0.392476    -0.146298     0.054865
H316     H      0.298838    -0.447340     0.445135
H317     H      0.246178    -0.107524    -0.052660
H318     H     -0.052660     0.246178    -0.107524
H319     H      0.445135     0.298838    -0.447340
H320     H     -0.353702     0.253822     0.201162
H321     H      0.253822     0.201162    -0.353702
H322     H     -0.146298     0.054865    -0.392476
H323     H      0.054865    -0.392476    -0.146298
H324     H     -0.447340     0.445135     0.298838
H325     H      0.447340     0.392476    -0.253822
H326     H      0.146298    -0.298838    -0.246178
H327     H      0.353702     0.107524    -0.445135
H328     H      0.052660    -0.201162    -0.054865
H329     H      0.392476    -0.253822     0.447340
H330     H     -0.253822     0.447340     0.392476
H331     H     -0.201162    -0.054865     0.052660
H332     H     -0.246178     0.146298    -0.298838
H333     H     -0.298838    -0.246178     0.146298
H334     H     -0.445135     0.353702     0.107524
H335     H      0.107524    -0.445135     0.353702
H336     H     -0.054865     0.052660    -0.201162
C193     C     -0.229921    -0.089043     0.205144
C194     C      0.205813    -0.435065     0.294856
C195     C     -0.270079    -0.064935     0.140878
C196     C      0.294187    -0.410957     0.359122
C197     C      0.205144    -0.229921    -0.089043
C198     C     -0.089043     0.205144    -0.229921
C199     C      0.359122     0.294187    -0.410957
C200     C     -0.435065     0.294856     0.205813
C201     C      0.294856     0.205813    -0.435065
C202     C     -0.064935     0.140878    -0.270079
C203     C      0.140878    -0.270079    -0.064935
C204     C     -0.410957     0.359122     0.294187
C205     C      0.410957     0.270079    -0.294856
C206     C      0.064935    -0.294187    -0.205144
C207     C      0.435065     0.229921    -0.359122
C208     C      0.089043    -0.205813    -0.140878
C209     C      0.270079    -0.294856     0.410957
C210     C     -0.294856     0.410957     0.270079
C211     C     -0.205813    -0.140878     0.089043
C212     C     -0.205144     0.064935    -0.294187
C213     C     -0.294187    -0.205144     0.064935
C214     C     -0.359122     0.435065     0.229921
C215     C      0.229921    -0.359122     0.435065
C216     C     -0.140878     0.089043    -0.205813
C217     C     -0.155456    -0.051474     0.265747
C218     C      0.182779    -0.421203     0.234253
C219     C     -0.344544    -0.078797     0.103982
C220     C      0.317221    -0.448526     0.396018
C221     C      0.265747    -0.155456    -0.051474
C222     C     -0.051474     0.265747    -0.155456
C223     C      0.396018     0.317221    -0.448526
C224     C     -0.421203     0.234253     0.182779
C225     C      0.234253     0.182779    -0.421203
C226     C     -0.078797     0.103982    -0.344544
C227     C      0.103982    -0.344544    -0.078797
C228     C     -0.448526     0.396018     0.317221
C229     C      0.448526     0.344544    -0.234253
C230     C      0.078797    -0.317221    -0.265747
C231     C      0.421203     0.155456    -0.396018
C232     C      0.051474    -0.182779    -0.103982
C233     C      0.344544    -0.234253     0.448526
C234     C     -0.234253     0.448526     0.344544
C235     C     -0.182779    -0.103982     0.051474
C236     C     -0.265747     0.078797    -0.317221
C237     C     -0.317221    -0.265747     0.078797
C238     C     -0.396018     0.421203     0.155456
C239     C      0.155456    -0.396018     0.421203
C240     C     -0.103982     0.051474    -0.182779
C241     C     -0.216149    -0.098885     0.174203
C242     C      0.226912    -0.390353     0.325797
C243     C     -0.283851    -0.109647     0.117265
C244     C      0.273088    -0.401115     0.382735
C245     C      0.174203    -0.216149    -0.098885
C246     C     -0.098885     0.174203    -0.216149
C247     C      0.382735     0.273088    -0.401115
C248     C     -0.390353     0.325797     0.226912
C249     C      0.325797     0.226912    -0.390353
C250     C     -0.109647     0.117265    -0.283851
C251     C      0.117265    -0.283851    -0.109647
C252     C     -0.401115     0.382735     0.273088
C253     C      0.401115     0.283851    -0.325797
C254     C      0.109647    -0.273088    -0.174203
C255     C      0.390353     0.216149    -0.382735
C256     C      0.098885    -0.226912    -0.117265
C257     C      0.283851    -0.325797     0.401115
C258     C     -0.325797     0.401115     0.283851
C259     C     -0.226912    -0.117265     0.098885
C260     C     -0.174203     0.109647    -0.273088
C261     C     -0.273088    -0.174203     0.109647
C262     C     -0.382735     0.390353     0.216149
C263     C      0.216149    -0.382735     0.390353
C264     C     -0.117265     0.098885    -0.226912
C265     C     -0.171602    -0.084921     0.190031
C266     C      0.225048    -0.361633     0.309969
C267     C     -0.328398    -0.138367     0.086681
C268     C      0.274952    -0.415079     0.413319
C269     C      0.190031    -0.171602    -0.084921
C270     C     -0.084921     0.190031    -0.171602
C271     C      0.413319     0.274952    -0.415079
C272     C     -0.361633     0.309969     0.225048
C273     C      0.309969     0.225048    -0.361633
C274     C     -0.138367     0.086681    -0.328398
C275     C      0.086681    -0.328398    -0.138367
C276     C     -0.415079     0.413319     0.274952
C277     C      0.415079     0.328398    -0.309969
C278     C      0.138367    -0.274952    -0.190031
C279     C      0.361633     0.171602    -0.413319
C280     C      0.084921    -0.225048    -0.086681
C281     C      0.328398    -0.309969     0.415079
C282     C     -0.309969     0.415079     0.328398
C283     C     -0.225048    -0.086681     0.084921
C284     C     -0.190031     0.138367    -0.274952
C285     C     -0.274952    -0.190031     0.138367
C286     C     -0.413319     0.361633     0.171602
C287     C      0.171602    -0.413319     0.361633
C288     C     -0.086681     0.084921    -0.225048
C289     C     -0.062658     0.020175     0.406108
C290     C      0.114068    -0.468765     0.093892
C291     C     -0.437342    -0.031235     0.082833
C292     C      0.385932     0.479825     0.417167
C293     C      0.406108    -0.062658     0.020175
C294     C      0.020175     0.406108    -0.062658
C295     C      0.417167     0.385932     0.479825
C296     C     -0.468765     0.093892     0.114068
C297     C      0.093892     0.114068    -0.468765
C298     C     -0.031235     0.082833    -0.437342
C299     C      0.082833    -0.437342    -0.031235
C300     C      0.479825     0.417167     0.385932
C301     C     -0.479825     0.437342    -0.093892
C302     C      0.031235    -0.385932    -0.406108
C303     C      0.468765     0.062658    -0.417167
C304     C     -0.020175    -0.114068    -0.082833
C305     C      0.437342    -0.093892    -0.479825
C306     C     -0.093892    -0.479825     0.437342
C307     C     -0.114068    -0.082833    -0.020175
C308     C     -0.406108     0.031235    -0.385932
C309     C     -0.385932    -0.406108     0.031235
C310     C     -0.417167     0.468765     0.062658
C311     C      0.062658    -0.417167     0.468765
C312     C     -0.082833    -0.020175    -0.114068
C313     C     -0.081397     0.009048     0.331299
C314     C      0.177749    -0.412696     0.168701
C315     C     -0.418603    -0.087304     0.090445
C316     C      0.322251     0.490952     0.409555
C317     C      0.331299    -0.081397     0.009048
C318     C      0.009048     0.331299    -0.081397
C319     C      0.409555     0.322251     0.490952
C320     C     -0.412696     0.168701     0.177749
C321     C      0.168701     0.177749    -0.412696
C322     C     -0.087304     0.090445    -0.418603
C323     C      0.090445    -0.418603    -0.087304
C324     C      0.490952     0.409555     0.322251
C325     C     -0.490952     0.418603    -0.168701
C326     C      0.087304    -0.322251    -0.331299
C327     C      0.412696     0.081397    -0.409555
C328     C     -0.009048    -0.177749    -0.090445
C329     C      0.418603    -0.168701    -0.490952
C330     C     -0.168701    -0.490952     0.418603
C331     C     -0.177749    -0.090445    -0.009048
C332     C     -0.331299     0.087304    -0.322251
C333     C     -0.322251    -0.331299     0.087304
C334     C     -0.409555     0.412696     0.081397
C335     C      0.081397    -0.409555     0.412696
C336     C     -0.090445    -0.009048    -0.177749
C337     C     -0.200279    -0.065798     0.249864
C338     C      0.184337    -0.450143     0.250136
C339     C     -0.299721    -0.049857     0.134481
C340     C      0.315663    -0.434202     0.365519
C341     C      0.249864    -0.200279    -0.065798
C342     C     -0.065798     0.249864    -0.200279
C343     C      0.365519     0.315663    -0.434202
C344     C     -0.450143     0.250136     0.184337
C345     C      0.250136     0.184337    -0.450143
C346     C     -0.049857     0.134481    -0.299721
C347     C      0.134481    -0.299721    -0.049857
C348     C     -0.434202     0.365519     0.315663
C349     C      0.434202     0.299721    -0.250136
C350     C      0.049857    -0.315663    -0.249864
C351     C      0.450143     0.200279    -0.365519
C352     C      0.065798    -0.184337    -0.134481
C353     C      0.299721    -0.250136     0.434202
C354     C     -0.250136     0.434202     0.299721
C355     C     -0.184337    -0.134481     0.065798
C356     C     -0.249864     0.049857    -0.315663
C357     C     -0.315663    -0.249864     0.049857
C358     C     -0.365519     0.450143     0.200279
C359     C      0.200279    -0.365519     0.450143
C360     C     -0.134481     0.065798    -0.184337
C361     C     -0.124064    -0.026231     0.313184
C362     C      0.160586    -0.437248     0.186816
C363     C     -0.375936    -0.062752     0.097834
C364     C      0.339414    -0.473769     0.402166
C365     C      0.313184    -0.124064    -0.026231
C366     C     -0.026231     0.313184    -0.124064
C367     C      0.402166     0.339414    -0.473769
C368     C     -0.437248     0.186816     0.160586
C369     C      0.186816     0.160586    -0.437248
C370     C     -0.062752     0.097834    -0.375936
C371     C      0.097834    -0.375936    -0.062752
C372     C     -0.473769     0.402166     0.339414
C373     C      0.473769     0.375936    -0.186816
C374     C      0.062752    -0.339414    -0.313184
C375     C      0.437248     0.124064    -0.402166
C376     C      0.026231    -0.160586    -0.097834
C377     C      0.375936    -0.186816     0.473769
C378     C     -0.186816     0.473769     0.375936
C379     C     -0.160586    -0.097834     0.026231
C380     C     -0.313184     0.062752    -0.339414
C381     C     -0.339414    -0.313184     0.062752
C382     C     -0.402166     0.437248     0.124064
C383     C      0.124064    -0.402166     0.437248
C384     C     -0.097834     0.026231    -0.160586
C385     C     -0.141896    -0.062058     0.234845
C386     C      0.203097    -0.376740     0.265155
C387     C     -0.358104    -0.123260     0.079837
C388     C      0.296903    -0.437942     0.420163
C389     C      0.234845    -0.141896    -0.062058
C390     C     -0.062058     0.234845    -0.141896
C391     C      0.420163     0.296903    -0.437942
C392     C     -0.376740     0.265155     0.203097
C393     C      0.265155     0.203097    -0.376740
C394     C     -0.123260     0.079837    -0.358104
C395     C      0.079837    -0.358104    -0.123260
C396     C     -0.437942     0.420163     0.296903
C397     C      0.437942     0.358104    -0.265155
C398     C      0.123260    -0.296903    -0.234845
C399     C      0.376740     0.141896    -0.420163
C400     C      0.062058    -0.203097    -0.079837
C401     C      0.358104    -0.265155     0.437942
C402     C     -0.265155     0.437942     0.358104
C403     C     -0.203097    -0.079837     0.062058
C404     C     -0.234845     0.123260    -0.296903
C405     C     -0.296903    -0.234845     0.123260
C406     C     -0.420163     0.376740     0.141896
C407     C      0.141896    -0.420163     0.376740
C408     C     -0.079837     0.062058    -0.203097
C409     C     -0.105478    -0.012989     0.387447
C410     C      0.099564    -0.492924     0.112553
C411     C     -0.394522    -0.007076     0.092489
C412     C      0.400436    -0.487011     0.407511
C413     C      0.387447    -0.105478    -0.012989
C414     C     -0.012989     0.387447    -0.105478
C415     C      0.407511     0.400436    -0.487011
C416     C     -0.492924     0.112553     0.099564
C417     C      0.112553     0.099564    -0.492924
C418     C     -0.007076     0.092489    -0.394522
C419     C      0.092489    -0.394522    -0.007076
C420     C     -0.487011     0.407511     0.400436
C421     C      0.487011     0.394522    -0.112553
C422     C      0.007076    -0.400436    -0.387447
C423     C      0.492924     0.105478    -0.407511
C424     C      0.012989    -0.099564    -0.092489
C425     C      0.394522    -0.112553     0.487011
C426     C     -0.112553     0.487011     0.394522
C427     C     -0.099564    -0.092489     0.012989
C428     C     -0.387447     0.007076    -0.400436
C429     C     -0.400436    -0.387447     0.007076
C430     C     -0.407511     0.492924     0.105478
C431     C      0.105478    -0.407511     0.492924
C432     C     -0.092489     0.012989    -0.099564
C433     C     -0.050759     0.031588     0.377492
C434     C      0.154096    -0.428251     0.122508
C435     C     -0.449241    -0.071749     0.082346
C436     C      0.345904     0.468412     0.417654
C437     C      0.377492    -0.050759     0.031588
C438     C      0.031588     0.377492    -0.050759
C439     C      0.417654     0.345904     0.468412
C440     C     -0.428251     0.122508     0.154096
C441     C      0.122508     0.154096    -0.428251
C442     C     -0.071749     0.082346    -0.449241
C443     C      0.082346    -0.449241    -0.071749
C444     C      0.468412     0.417654     0.345904
C445     C     -0.468412     0.449241    -0.122508
C446     C      0.071749    -0.345904    -0.377492
C447     C      0.428251     0.050759    -0.417654
C448     C     -0.031588    -0.154096    -0.082346
C449     C      0.449241    -0.122508    -0.468412
C450     C     -0.122508    -0.468412     0.449241
C451     C     -0.154096    -0.082346    -0.031588
C452     C     -0.377492     0.071749    -0.345904
C453     C     -0.345904    -0.377492     0.071749
C454     C     -0.417654     0.428251     0.050759
C455     C      0.050759    -0.417654     0.428251
C456     C     -0.082346    -0.031588    -0.154096
B1       B     -0.029884     0.043385     0.455275
B2       B      0.088110    -0.485159     0.044725
B3       B     -0.470116    -0.014841     0.073269
B4       B      0.411890     0.456615     0.426731
B5       B      0.455275    -0.029884     0.043385
B6       B      0.043385     0.455275    -0.029884
B7       B      0.426731     0.411890     0.456615
B8       B     -0.485159     0.044725     0.088110
B9       B      0.044725     0.088110    -0.485159
B10      B     -0.014841     0.073269    -0.470116
B11      B      0.073269    -0.470116    -0.014841
B12      B      0.456615     0.426731     0.411890
B13      B     -0.456615     0.470116    -0.044725
B14      B      0.014841    -0.411890    -0.455275
B15      B      0.485159     0.029884    -0.426731
B16      B     -0.043385    -0.088110    -0.073269
B17      B      0.470116    -0.044725    -0.456615
B18      B     -0.044725    -0.456615     0.470116
B19      B     -0.088110    -0.073269    -0.043385
B20      B     -0.455275     0.014841    -0.411890
B21      B     -0.411890    -0.455275     0.014841
B22      B     -0.426731     0.485159     0.029884
B23      B      0.029884    -0.426731     0.485159
B24      B     -0.073269    -0.043385    -0.088110
C457     C     -0.135222    -0.035914     0.342199
C458     C      0.121887    -0.477421     0.157801
C459     C     -0.364778    -0.022579     0.099307
C460     C      0.378113    -0.464086     0.400693
C461     C      0.342199    -0.135222    -0.035914
C462     C     -0.035914     0.342199    -0.135222
C463     C      0.400693     0.378113    -0.464086
C464     C     -0.477421     0.157801     0.121887
C465     C      0.157801     0.121887    -0.477421
C466     C     -0.022579     0.099307    -0.364778
C467     C      0.099307    -0.364778    -0.022579
C468     C     -0.464086     0.400693     0.378113
C469     C      0.464086     0.364778    -0.157801
C470     C      0.022579    -0.378113    -0.342199
C471     C      0.477421     0.135222    -0.400693
C472     C      0.035914    -0.121887    -0.099307
C473     C      0.364778    -0.157801     0.464086
C474     C     -0.157801     0.464086     0.364778
C475     C     -0.121887    -0.099307     0.035914
C476     C     -0.342199     0.022579    -0.378113
C477     C     -0.378113    -0.342199     0.022579
C478     C     -0.400693     0.477421     0.135222
C479     C      0.135222    -0.400693     0.477421
C480     C     -0.099307     0.035914    -0.121887
C481     C     -0.375000     0.375000     0.250000
C482     C     -0.125000     0.125000    -0.250000
C483     C      0.250000    -0.375000     0.375000
C484     C      0.375000     0.250000    -0.375000
C485     C     -0.250000    -0.125000     0.125000
C486     C      0.125000    -0.250000    -0.125000
