data_Staggered_MSUCOF-4-FeCp_BULK_OPTGEOM_DZ_optimized

_cell_length_a    37.302184
_cell_length_b    37.302184
_cell_length_c    37.302184
_cell_angle_alpha 109.471221
_cell_angle_beta  109.471221
_cell_angle_gamma 109.471221

_symmetry_space_group_name_H-M  'P 1'
_symmetry_Int_Tables_number     1

loop_
_symmetry_equiv_pos_as_xyz
  'x, y, z'

loop_
_atom_site_label
_atom_site_type_symbol
_atom_site_fract_x
_atom_site_fract_y
_atom_site_fract_z
H1       H      0.328394     0.044187     0.014362
H2       H     -0.470175     0.314032     0.485638
H3       H      0.171606     0.185968    -0.284207
H4       H     -0.029825     0.455813    -0.215793
H5       H      0.014362     0.328394     0.044187
H6       H      0.044187     0.014362     0.328394
H7       H     -0.215793    -0.029825     0.455813
H8       H      0.314032     0.485638    -0.470175
H9       H      0.485638    -0.470175     0.314032
H10      H      0.185968    -0.284207     0.171606
H11      H     -0.284207     0.171606     0.185968
H12      H      0.455813    -0.215793    -0.029825
H13      H     -0.455813    -0.171606    -0.485638
H14      H     -0.185968     0.029825    -0.014362
H15      H     -0.314032    -0.328394     0.215793
H16      H     -0.044187     0.470175     0.284207
H17      H     -0.171606    -0.485638    -0.455813
H18      H     -0.485638    -0.455813    -0.171606
H19      H      0.470175     0.284207    -0.044187
H20      H     -0.014362    -0.185968     0.029825
H21      H      0.029825    -0.014362    -0.185968
H22      H      0.215793    -0.314032    -0.328394
H23      H     -0.328394     0.215793    -0.314032
H24      H      0.284207    -0.044187     0.470175
H25      H      0.295769    -0.082975    -0.084735
H26      H     -0.498240     0.380504    -0.415265
H27      H      0.204231     0.119496    -0.378744
H28      H     -0.001760    -0.417025    -0.121256
H29      H     -0.084735     0.295769    -0.082975
H30      H     -0.082975    -0.084735     0.295769
H31      H     -0.121256    -0.001760    -0.417025
H32      H      0.380504    -0.415265    -0.498240
H33      H     -0.415265    -0.498240     0.380504
H34      H      0.119496    -0.378744     0.204231
H35      H     -0.378744     0.204231     0.119496
H36      H     -0.417025    -0.121256    -0.001760
H37      H      0.417025    -0.204231     0.415265
H38      H     -0.119496     0.001760     0.084735
H39      H     -0.380504    -0.295769     0.121256
H40      H      0.082975     0.498240     0.378744
H41      H     -0.204231     0.415265     0.417025
H42      H      0.415265     0.417025    -0.204231
H43      H      0.498240     0.378744     0.082975
H44      H      0.084735    -0.119496     0.001760
H45      H      0.001760     0.084735    -0.119496
H46      H      0.121256    -0.380504    -0.295769
H47      H     -0.295769     0.121256    -0.380504
H48      H      0.378744     0.082975     0.498240
H49      H      0.383302    -0.030079    -0.041926
H50      H     -0.488152     0.425228    -0.458074
H51      H      0.116698     0.074772    -0.413380
H52      H     -0.011848    -0.469921    -0.086620
H53      H     -0.041926     0.383302    -0.030079
H54      H     -0.030079    -0.041926     0.383302
H55      H     -0.086620    -0.011848    -0.469921
H56      H      0.425228    -0.458074    -0.488152
H57      H     -0.458074    -0.488152     0.425228
H58      H      0.074772    -0.413380     0.116698
H59      H     -0.413380     0.116698     0.074772
H60      H     -0.469921    -0.086620    -0.011848
H61      H      0.469921    -0.116698     0.458074
H62      H     -0.074772     0.011848     0.041926
H63      H     -0.425228    -0.383302     0.086620
H64      H      0.030079     0.488152     0.413380
H65      H     -0.116698     0.458074     0.469921
H66      H      0.458074     0.469921    -0.116698
H67      H      0.488152     0.413380     0.030079
H68      H      0.041926    -0.074772     0.011848
H69      H      0.011848     0.041926    -0.074772
H70      H      0.086620    -0.425228    -0.383302
H71      H     -0.383302     0.086620    -0.425228
H72      H      0.413380     0.030079     0.488152
H73      H      0.261389    -0.036776    -0.050266
H74      H     -0.486510     0.311654    -0.449734
H75      H      0.238611     0.188346    -0.298164
H76      H     -0.013490    -0.463224    -0.201836
H77      H     -0.050266     0.261389    -0.036776
H78      H     -0.036776    -0.050266     0.261389
H79      H     -0.201836    -0.013490    -0.463224
H80      H      0.311654    -0.449734    -0.486510
H81      H     -0.449734    -0.486510     0.311654
H82      H      0.188346    -0.298164     0.238611
H83      H     -0.298164     0.238611     0.188346
H84      H     -0.463224    -0.201836    -0.013490
H85      H      0.463224    -0.238611     0.449734
H86      H     -0.188346     0.013490     0.050266
H87      H     -0.311654    -0.261389     0.201836
H88      H      0.036776     0.486510     0.298164
H89      H     -0.238611     0.449734     0.463224
H90      H      0.449734     0.463224    -0.238611
H91      H      0.486510     0.298164     0.036776
H92      H      0.050266    -0.188346     0.013490
H93      H      0.013490     0.050266    -0.188346
H94      H      0.201836    -0.311654    -0.261389
H95      H     -0.261389     0.201836    -0.311654
H96      H      0.298164     0.036776     0.486510
C1       C      0.331080     0.018496    -0.007118
C2       C     -0.474386     0.338197    -0.492882
C3       C      0.168920     0.161803    -0.312583
C4       C     -0.025614     0.481504    -0.187417
C5       C     -0.007118     0.331080     0.018496
C6       C      0.018496    -0.007118     0.331080
C7       C     -0.187417    -0.025614     0.481504
C8       C      0.338197    -0.492882    -0.474386
C9       C     -0.492882    -0.474386     0.338197
C10      C      0.161803    -0.312583     0.168920
C11      C     -0.312583     0.168920     0.161803
C12      C      0.481504    -0.187417    -0.025614
C13      C     -0.481504    -0.168920     0.492882
C14      C     -0.161803     0.025614     0.007118
C15      C     -0.338197    -0.331080     0.187417
C16      C     -0.018496     0.474386     0.312583
C17      C     -0.168920     0.492882    -0.481504
C18      C      0.492882    -0.481504    -0.168920
C19      C      0.474386     0.312583    -0.018496
C20      C      0.007118    -0.161803     0.025614
C21      C      0.025614     0.007118    -0.161803
C22      C      0.187417    -0.338197    -0.331080
C23      C     -0.331080     0.187417    -0.338197
C24      C      0.312583    -0.018496     0.474386
C25      C      0.370794     0.021143    -0.005243
C26      C     -0.473614     0.376037    -0.494757
C27      C      0.129206     0.123963    -0.349651
C28      C     -0.026386     0.478857    -0.150349
C29      C     -0.005243     0.370794     0.021143
C30      C      0.021143    -0.005243     0.370794
C31      C     -0.150349    -0.026386     0.478857
C32      C      0.376037    -0.494757    -0.473614
C33      C     -0.494757    -0.473614     0.376037
C34      C      0.123963    -0.349651     0.129206
C35      C     -0.349651     0.129206     0.123963
C36      C      0.478857    -0.150349    -0.026386
C37      C     -0.478857    -0.129206     0.494757
C38      C     -0.123963     0.026386     0.005243
C39      C     -0.376037    -0.370794     0.150349
C40      C     -0.021143     0.473614     0.349651
C41      C     -0.129206     0.494757    -0.478857
C42      C      0.494757    -0.478857    -0.129206
C43      C      0.473614     0.349651    -0.021143
C44      C      0.005243    -0.123963     0.026386
C45      C      0.026386     0.005243    -0.123963
C46      C      0.150349    -0.376037    -0.370794
C47      C     -0.370794     0.150349    -0.376037
C48      C      0.349651    -0.021143     0.473614
C49      C      0.295680    -0.024463    -0.041169
C50      C     -0.483295     0.336849    -0.458831
C51      C      0.204320     0.163151    -0.320144
C52      C     -0.016705    -0.475537    -0.179856
C53      C     -0.041169     0.295680    -0.024463
C54      C     -0.024463    -0.041169     0.295680
C55      C     -0.179856    -0.016705    -0.475537
C56      C      0.336849    -0.458831    -0.483295
C57      C     -0.458831    -0.483295     0.336849
C58      C      0.163151    -0.320144     0.204320
C59      C     -0.320144     0.204320     0.163151
C60      C     -0.475537    -0.179856    -0.016705
C61      C      0.475537    -0.204320     0.458831
C62      C     -0.163151     0.016705     0.041169
C63      C     -0.336849    -0.295680     0.179856
C64      C      0.024463     0.483295     0.320144
C65      C     -0.204320     0.458831     0.475537
C66      C      0.458831     0.475537    -0.204320
C67      C      0.483295     0.320144     0.024463
C68      C      0.041169    -0.163151     0.016705
C69      C      0.016705     0.041169    -0.163151
C70      C      0.179856    -0.336849    -0.295680
C71      C     -0.295680     0.179856    -0.336849
C72      C      0.320144     0.024463     0.483295
Fe1      Fe     0.340789    -0.027429     0.004854
Fe2      Fe     0.467716     0.335934     0.495146
Fe3      Fe     0.159211     0.164066    -0.368218
Fe4      Fe     0.032284    -0.472571    -0.131782
Fe5      Fe     0.004854     0.340789    -0.027429
Fe6      Fe    -0.027429     0.004854     0.340789
Fe7      Fe    -0.131782     0.032284    -0.472571
Fe8      Fe     0.335934     0.495146     0.467716
Fe9      Fe     0.495146     0.467716     0.335934
Fe10     Fe     0.164066    -0.368218     0.159211
Fe11     Fe    -0.368218     0.159211     0.164066
Fe12     Fe    -0.472571    -0.131782     0.032284
Fe13     Fe     0.472571    -0.159211    -0.495146
Fe14     Fe    -0.164066    -0.032284    -0.004854
Fe15     Fe    -0.335934    -0.340789     0.131782
Fe16     Fe     0.027429    -0.467716     0.368218
Fe17     Fe    -0.159211    -0.495146     0.472571
Fe18     Fe    -0.495146     0.472571    -0.159211
Fe19     Fe    -0.467716     0.368218     0.027429
Fe20     Fe    -0.004854    -0.164066    -0.032284
Fe21     Fe    -0.032284    -0.004854    -0.164066
Fe22     Fe     0.131782    -0.335934    -0.340789
Fe23     Fe    -0.340789     0.131782    -0.335934
Fe24     Fe     0.368218     0.027429    -0.467716
H97      H      0.417067     0.019490     0.086144
H98      H      0.433346     0.330923     0.413856
H99      H      0.082933     0.169077    -0.397577
H100     H      0.066654     0.480510    -0.102423
H101     H      0.086144     0.417067     0.019490
H102     H      0.019490     0.086144     0.417067
H103     H     -0.102423     0.066654     0.480510
H104     H      0.330923     0.413856     0.433346
H105     H      0.413856     0.433346     0.330923
H106     H      0.169077    -0.397577     0.082933
H107     H     -0.397577     0.082933     0.169077
H108     H      0.480510    -0.102423     0.066654
H109     H     -0.480510    -0.082933    -0.413856
H110     H     -0.169077    -0.066654    -0.086144
H111     H     -0.330923    -0.417067     0.102423
H112     H     -0.019490    -0.433346     0.397577
H113     H     -0.082933    -0.413856    -0.480510
H114     H     -0.413856    -0.480510    -0.082933
H115     H     -0.433346     0.397577    -0.019490
H116     H     -0.086144    -0.169077    -0.066654
H117     H     -0.066654    -0.086144    -0.169077
H118     H      0.102423    -0.330923    -0.417067
H119     H     -0.417067     0.102423    -0.330923
H120     H      0.397577    -0.019490    -0.433346
C73      C      0.313578    -0.048462    -0.060007
C74      C     -0.488455     0.373585    -0.439993
C75      C      0.186422     0.126415    -0.362041
C76      C     -0.011545    -0.451538    -0.137959
C77      C     -0.060007     0.313578    -0.048462
C78      C     -0.048462    -0.060007     0.313578
C79      C     -0.137959    -0.011545    -0.451538
C80      C      0.373585    -0.439993    -0.488455
C81      C     -0.439993    -0.488455     0.373585
C82      C      0.126415    -0.362041     0.186422
C83      C     -0.362041     0.186422     0.126415
C84      C     -0.451538    -0.137959    -0.011545
C85      C      0.451538    -0.186422     0.439993
C86      C     -0.126415     0.011545     0.060007
C87      C     -0.373585    -0.313578     0.137959
C88      C      0.048462     0.488455     0.362041
C89      C     -0.186422     0.439993     0.451538
C90      C      0.439993     0.451538    -0.186422
C91      C      0.488455     0.362041     0.048462
C92      C      0.060007    -0.126415     0.011545
C93      C      0.011545     0.060007    -0.126415
C94      C      0.137959    -0.373585    -0.313578
C95      C     -0.313578     0.137959    -0.373585
C96      C      0.362041     0.048462     0.488455
H121     H      0.340579     0.007216     0.083947
H122     H      0.423269     0.256632     0.416053
H123     H      0.159421     0.243368    -0.333363
H124     H      0.076731     0.492784    -0.166637
H125     H      0.083947     0.340579     0.007216
H126     H      0.007216     0.083947     0.340579
H127     H     -0.166637     0.076731     0.492784
H128     H      0.256632     0.416053     0.423269
H129     H      0.416053     0.423269     0.256632
H130     H      0.243368    -0.333363     0.159421
H131     H     -0.333363     0.159421     0.243368
H132     H      0.492784    -0.166637     0.076731
H133     H     -0.492784    -0.159421    -0.416053
H134     H     -0.243368    -0.076731    -0.083947
H135     H     -0.256632    -0.340579     0.166637
H136     H     -0.007216    -0.423269     0.333363
H137     H     -0.159421    -0.416053    -0.492784
H138     H     -0.416053    -0.492784    -0.159421
H139     H     -0.423269     0.333363    -0.007216
H140     H     -0.083947    -0.243368    -0.076731
H141     H     -0.076731    -0.083947    -0.243368
H142     H      0.166637    -0.256632    -0.340579
H143     H     -0.340579     0.166637    -0.256632
H144     H      0.333363    -0.007216    -0.423269
C97      C      0.311449    -0.060745     0.029580
C98      C      0.409675     0.281870     0.470420
C99      C      0.188551     0.218130    -0.372195
C100     C      0.090325    -0.439255    -0.127805
C101     C      0.029580     0.311449    -0.060745
C102     C     -0.060745     0.029580     0.311449
C103     C     -0.127805     0.090325    -0.439255
C104     C      0.281870     0.470420     0.409675
C105     C      0.470420     0.409675     0.281870
C106     C      0.218130    -0.372195     0.188551
C107     C     -0.372195     0.188551     0.218130
C108     C     -0.439255    -0.127805     0.090325
C109     C      0.439255    -0.188551    -0.470420
C110     C     -0.218130    -0.090325    -0.029580
C111     C     -0.281870    -0.311449     0.127805
C112     C      0.060745    -0.409675     0.372195
C113     C     -0.188551    -0.470420     0.439255
C114     C     -0.470420     0.439255    -0.188551
C115     C     -0.409675     0.372195     0.060745
C116     C     -0.029580    -0.218130    -0.090325
C117     C     -0.090325    -0.029580    -0.218130
C118     C      0.127805    -0.281870    -0.311449
C119     C     -0.311449     0.127805    -0.281870
C120     C      0.372195     0.060745    -0.409675
C121     C      0.385638    -0.010690     0.064968
C122     C      0.424342     0.320671     0.435032
C123     C      0.114362     0.179329    -0.396329
C124     C      0.075658    -0.489310    -0.103671
C125     C      0.064968     0.385638    -0.010690
C126     C     -0.010690     0.064968     0.385638
C127     C     -0.103671     0.075658    -0.489310
C128     C      0.320671     0.435032     0.424342
C129     C      0.435032     0.424342     0.320671
C130     C      0.179329    -0.396329     0.114362
C131     C     -0.396329     0.114362     0.179329
C132     C     -0.489310    -0.103671     0.075658
C133     C      0.489310    -0.114362    -0.435032
C134     C     -0.179329    -0.075658    -0.064968
C135     C     -0.320671    -0.385638     0.103671
C136     C      0.010690    -0.424342     0.396329
C137     C     -0.114362    -0.435032     0.489310
C138     C     -0.435032     0.489310    -0.114362
C139     C     -0.424342     0.396329     0.010690
C140     C     -0.064968    -0.179329    -0.075658
C141     C     -0.075658    -0.064968    -0.179329
C142     C      0.103671    -0.320671    -0.385638
C143     C     -0.385638     0.103671    -0.320671
C144     C      0.396329     0.010690    -0.424342
C145     C      0.345270    -0.017370     0.063665
C146     C      0.418966     0.281606     0.436335
C147     C      0.154730     0.218394    -0.362640
C148     C      0.081034    -0.482630    -0.137360
C149     C      0.063665     0.345270    -0.017370
C150     C     -0.017370     0.063665     0.345270
C151     C     -0.137360     0.081034    -0.482630
C152     C      0.281606     0.436335     0.418966
C153     C      0.436335     0.418966     0.281606
C154     C      0.218394    -0.362640     0.154730
C155     C     -0.362640     0.154730     0.218394
C156     C     -0.482630    -0.137360     0.081034
C157     C      0.482630    -0.154730    -0.436335
C158     C     -0.218394    -0.081034    -0.063665
C159     C     -0.281606    -0.345270     0.137360
C160     C      0.017370    -0.418966     0.362640
C161     C     -0.154730    -0.436335     0.482630
C162     C     -0.436335     0.482630    -0.154730
C163     C     -0.418966     0.362640     0.017370
C164     C     -0.063665    -0.218394    -0.081034
C165     C     -0.081034    -0.063665    -0.218394
C166     C      0.137360    -0.281606    -0.345270
C167     C     -0.345270     0.137360    -0.281606
C168     C      0.362640     0.017370    -0.418966
H145     H      0.277149    -0.075313     0.020595
H146     H      0.404092     0.256554     0.479405
H147     H      0.222851     0.243446    -0.352463
H148     H      0.095908    -0.424687    -0.147537
H149     H      0.020595     0.277149    -0.075313
H150     H     -0.075313     0.020595     0.277149
H151     H     -0.147537     0.095908    -0.424687
H152     H      0.256554     0.479405     0.404092
H153     H      0.479405     0.404092     0.256554
H154     H      0.243446    -0.352463     0.222851
H155     H     -0.352463     0.222851     0.243446
H156     H     -0.424687    -0.147537     0.095908
H157     H      0.424687    -0.222851    -0.479405
H158     H     -0.243446    -0.095908    -0.020595
H159     H     -0.256554    -0.277149     0.147537
H160     H      0.075313    -0.404092     0.352463
H161     H     -0.222851    -0.479405     0.424687
H162     H     -0.479405     0.424687    -0.222851
H163     H     -0.404092     0.352463     0.075313
H164     H     -0.020595    -0.243446    -0.095908
H165     H     -0.095908    -0.020595    -0.243446
H166     H      0.147537    -0.256554    -0.277149
H167     H     -0.277149     0.147537    -0.256554
H168     H      0.352463     0.075313    -0.404092
H169     H      0.403657     0.048934     0.018246
H170     H     -0.469312     0.385411     0.481754
H171     H      0.096343     0.114589    -0.354723
H172     H     -0.030688     0.451066    -0.145277
H173     H      0.018246     0.403657     0.048934
H174     H      0.048934     0.018246     0.403657
H175     H     -0.145277    -0.030688     0.451066
H176     H      0.385411     0.481754    -0.469312
H177     H      0.481754    -0.469312     0.385411
H178     H      0.114589    -0.354723     0.096343
H179     H     -0.354723     0.096343     0.114589
H180     H      0.451066    -0.145277    -0.030688
H181     H     -0.451066    -0.096343    -0.481754
H182     H     -0.114589     0.030688    -0.018246
H183     H     -0.385411    -0.403657     0.145277
H184     H     -0.048934     0.469312     0.354723
H185     H     -0.096343    -0.481754    -0.451066
H186     H     -0.481754    -0.451066    -0.096343
H187     H      0.469312     0.354723    -0.048934
H188     H     -0.018246    -0.114589     0.030688
H189     H      0.030688    -0.018246    -0.114589
H190     H      0.145277    -0.385411    -0.403657
H191     H     -0.403657     0.145277    -0.385411
H192     H      0.354723    -0.048934     0.469312
O1       O      0.470448     0.014567     0.061483
O2       O      0.453084     0.408965     0.438517
O3       O      0.029552     0.091035    -0.455881
O4       O      0.046916     0.485433    -0.044119
O5       O      0.061483     0.470448     0.014567
O6       O      0.014567     0.061483     0.470448
O7       O     -0.044119     0.046916     0.485433
O8       O      0.408965     0.438517     0.453084
O9       O      0.438517     0.453084     0.408965
O10      O      0.091035    -0.455881     0.029552
O11      O     -0.455881     0.029552     0.091035
O12      O      0.485433    -0.044119     0.046916
O13      O     -0.485433    -0.029552    -0.438517
O14      O     -0.091035    -0.046916    -0.061483
O15      O     -0.408965    -0.470448     0.044119
O16      O     -0.014567    -0.453084     0.455881
O17      O     -0.029552    -0.438517    -0.485433
O18      O     -0.438517    -0.485433    -0.029552
O19      O     -0.453084     0.455881    -0.014567
O20      O     -0.061483    -0.091035    -0.046916
O21      O     -0.046916    -0.061483    -0.091035
O22      O      0.044119    -0.408965    -0.470448
O23      O     -0.470448     0.044119    -0.408965
O24      O      0.455881    -0.014567    -0.453084
H193     H      0.167485    -0.159396    -0.090172
H194     H      0.430776     0.257657    -0.409828
H195     H      0.332515     0.242343    -0.326881
H196     H      0.069224    -0.340604    -0.173119
H197     H     -0.090172     0.167485    -0.159396
H198     H     -0.159396    -0.090172     0.167485
H199     H     -0.173119     0.069224    -0.340604
H200     H      0.257657    -0.409828     0.430776
H201     H     -0.409828     0.430776     0.257657
H202     H      0.242343    -0.326881     0.332515
H203     H     -0.326881     0.332515     0.242343
H204     H     -0.340604    -0.173119     0.069224
H205     H      0.340604    -0.332515     0.409828
H206     H     -0.242343    -0.069224     0.090172
H207     H     -0.257657    -0.167485     0.173119
H208     H      0.159396    -0.430776     0.326881
H209     H     -0.332515     0.409828     0.340604
H210     H      0.409828     0.340604    -0.332515
H211     H     -0.430776     0.326881     0.159396
H212     H      0.090172    -0.242343    -0.069224
H213     H     -0.069224     0.090172    -0.242343
H214     H      0.173119    -0.257657    -0.167485
H215     H     -0.167485     0.173119    -0.257657
H216     H      0.326881     0.159396    -0.430776
H217     H      0.328645    -0.167022    -0.064790
H218     H      0.397768     0.393436    -0.435210
H219     H      0.171355     0.106564    -0.495667
H220     H      0.102232    -0.332978    -0.004333
H221     H     -0.064790     0.328645    -0.167022
H222     H     -0.167022    -0.064790     0.328645
H223     H     -0.004333     0.102232    -0.332978
H224     H      0.393436    -0.435210     0.397768
H225     H     -0.435210     0.397768     0.393436
H226     H      0.106564    -0.495667     0.171355
H227     H     -0.495667     0.171355     0.106564
H228     H     -0.332978    -0.004333     0.102232
H229     H      0.332978    -0.171355     0.435210
H230     H     -0.106564    -0.102232     0.064790
H231     H     -0.393436    -0.328645     0.004333
H232     H      0.167022    -0.397768     0.495667
H233     H     -0.171355     0.435210     0.332978
H234     H      0.435210     0.332978    -0.171355
H235     H     -0.397768     0.495667     0.167022
H236     H      0.064790    -0.106564    -0.102232
H237     H     -0.102232     0.064790    -0.106564
H238     H      0.004333    -0.393436    -0.328645
H239     H     -0.328645     0.004333    -0.393436
H240     H      0.495667     0.167022    -0.397768
C169     C      0.360000    -0.020248    -0.037748
C170     C     -0.482500     0.397747    -0.462252
C171     C      0.140000     0.102253    -0.380248
C172     C     -0.017500    -0.479752    -0.119752
C173     C     -0.037748     0.360000    -0.020248
C174     C     -0.020248    -0.037748     0.360000
C175     C     -0.119752    -0.017500    -0.479752
C176     C      0.397747    -0.462252    -0.482500
C177     C     -0.462252    -0.482500     0.397747
C178     C      0.102253    -0.380248     0.140000
C179     C     -0.380248     0.140000     0.102253
C180     C     -0.479752    -0.119752    -0.017500
C181     C      0.479752    -0.140000     0.462252
C182     C     -0.102253     0.017500     0.037748
C183     C     -0.397747    -0.360000     0.119752
C184     C      0.020248     0.482500     0.380248
C185     C     -0.140000     0.462252     0.479752
C186     C      0.462252     0.479752    -0.140000
C187     C      0.482500     0.380248     0.020248
C188     C      0.037748    -0.102253     0.017500
C189     C      0.017500     0.037748    -0.102253
C190     C      0.119752    -0.397747    -0.360000
C191     C     -0.360000     0.119752    -0.397747
C192     C      0.380248     0.020248     0.482500
H241     H      0.193005    -0.265161    -0.099821
H242     H      0.334660     0.292826    -0.400179
H243     H      0.306995     0.207174    -0.458166
H244     H      0.165340    -0.234839    -0.041834
H245     H     -0.099821     0.193005    -0.265161
H246     H     -0.265161    -0.099821     0.193005
H247     H     -0.041834     0.165340    -0.234839
H248     H      0.292826    -0.400179     0.334660
H249     H     -0.400179     0.334660     0.292826
H250     H      0.207174    -0.458166     0.306995
H251     H     -0.458166     0.306995     0.207174
H252     H     -0.234839    -0.041834     0.165340
H253     H      0.234839    -0.306995     0.400179
H254     H     -0.207174    -0.165340     0.099821
H255     H     -0.292826    -0.193005     0.041834
H256     H      0.265161    -0.334660     0.458166
H257     H     -0.306995     0.400179     0.234839
H258     H      0.400179     0.234839    -0.306995
H259     H     -0.334660     0.458166     0.265161
H260     H      0.099821    -0.207174    -0.165340
H261     H     -0.165340     0.099821    -0.207174
H262     H      0.041834    -0.292826    -0.193005
H263     H     -0.193005     0.041834    -0.292826
H264     H      0.458166     0.265161    -0.334660
H265     H      0.272796    -0.212811    -0.058242
H266     H      0.345431     0.331038    -0.441758
H267     H      0.227204     0.168962    -0.485607
H268     H      0.154569    -0.287189    -0.014393
H269     H     -0.058242     0.272796    -0.212811
H270     H     -0.212811    -0.058242     0.272796
H271     H     -0.014393     0.154569    -0.287189
H272     H      0.331038    -0.441758     0.345431
H273     H     -0.441758     0.345431     0.331038
H274     H      0.168962    -0.485607     0.227204
H275     H     -0.485607     0.227204     0.168962
H276     H     -0.287189    -0.014393     0.154569
H277     H      0.287189    -0.227204     0.441758
H278     H     -0.168962    -0.154569     0.058242
H279     H     -0.331038    -0.272796     0.014393
H280     H      0.212811    -0.345431     0.485607
H281     H     -0.227204     0.441758     0.287189
H282     H      0.441758     0.287189    -0.227204
H283     H     -0.345431     0.485607     0.212811
H284     H      0.058242    -0.168962    -0.154569
H285     H     -0.154569     0.058242    -0.168962
H286     H      0.014393    -0.331038    -0.272796
H287     H     -0.272796     0.014393    -0.331038
H288     H      0.485607     0.212811    -0.345431
H289     H      0.408674    -0.114742    -0.023452
H290     H      0.408711     0.432126    -0.476548
H291     H      0.091326     0.067874     0.476584
H292     H      0.091289    -0.385258     0.023416
H293     H     -0.023452     0.408674    -0.114742
H294     H     -0.114742    -0.023452     0.408674
H295     H      0.023416     0.091289    -0.385258
H296     H      0.432126    -0.476548     0.408711
H297     H     -0.476548     0.408711     0.432126
H298     H      0.067874     0.476584     0.091326
H299     H      0.476584     0.091326     0.067874
H300     H     -0.385258     0.023416     0.091289
H301     H      0.385258    -0.091326     0.476548
H302     H     -0.067874    -0.091289     0.023452
H303     H     -0.432126    -0.408674    -0.023416
H304     H      0.114742    -0.408711    -0.476584
H305     H     -0.091326     0.476548     0.385258
H306     H      0.476548     0.385258    -0.091326
H307     H     -0.408711    -0.476584     0.114742
H308     H      0.023452    -0.067874    -0.091289
H309     H     -0.091289     0.023452    -0.067874
H310     H     -0.023416    -0.432126    -0.408674
H311     H     -0.408674    -0.023416    -0.432126
H312     H     -0.476584     0.114742    -0.408711
H313     H      0.247305    -0.107503    -0.050706
H314     H      0.443203     0.298011    -0.449294
H315     H      0.252695     0.201989    -0.354808
H316     H      0.056797    -0.392497    -0.145192
H317     H     -0.050706     0.247305    -0.107503
H318     H     -0.107503    -0.050706     0.247305
H319     H     -0.145192     0.056797    -0.392497
H320     H      0.298011    -0.449294     0.443203
H321     H     -0.449294     0.443203     0.298011
H322     H      0.201989    -0.354808     0.252695
H323     H     -0.354808     0.252695     0.201989
H324     H     -0.392497    -0.145192     0.056797
H325     H      0.392497    -0.252695     0.449294
H326     H     -0.201989    -0.056797     0.050706
H327     H     -0.298011    -0.247305     0.145192
H328     H      0.107503    -0.443203     0.354808
H329     H     -0.252695     0.449294     0.392497
H330     H      0.449294     0.392497    -0.252695
H331     H     -0.443203     0.354808     0.107503
H332     H      0.050706    -0.201989    -0.056797
H333     H     -0.056797     0.050706    -0.201989
H334     H      0.145192    -0.298011    -0.247305
H335     H     -0.247305     0.145192    -0.298011
H336     H      0.354808     0.107503    -0.443203
C193     C      0.204870    -0.230558    -0.089741
C194     C      0.359183     0.294611    -0.410259
C195     C      0.295130     0.205389    -0.435428
C196     C      0.140817    -0.269442    -0.064572
C197     C     -0.089741     0.204870    -0.230558
C198     C     -0.230558    -0.089741     0.204870
C199     C     -0.064572     0.140817    -0.269442
C200     C      0.294611    -0.410259     0.359183
C201     C     -0.410259     0.359183     0.294611
C202     C      0.205389    -0.435428     0.295130
C203     C     -0.435428     0.295130     0.205389
C204     C     -0.269442    -0.064572     0.140817
C205     C      0.269442    -0.295130     0.410259
C206     C     -0.205389    -0.140817     0.089741
C207     C     -0.294611    -0.204870     0.064572
C208     C      0.230558    -0.359183     0.435428
C209     C     -0.295130     0.410259     0.269442
C210     C      0.410259     0.269442    -0.295130
C211     C     -0.359183     0.435428     0.230558
C212     C      0.089741    -0.205389    -0.140817
C213     C     -0.140817     0.089741    -0.205389
C214     C      0.064572    -0.294611    -0.204870
C215     C     -0.204870     0.064572    -0.294611
C216     C      0.435428     0.230558    -0.359183
C217     C      0.265742    -0.156283    -0.051443
C218     C      0.395161     0.317186    -0.448557
C219     C      0.234258     0.182814    -0.422025
C220     C      0.104839    -0.343717    -0.077975
C221     C     -0.051443     0.265742    -0.156283
C222     C     -0.156283    -0.051443     0.265742
C223     C     -0.077975     0.104839    -0.343717
C224     C      0.317186    -0.448557     0.395161
C225     C     -0.448557     0.395161     0.317186
C226     C      0.182814    -0.422025     0.234258
C227     C     -0.422025     0.234258     0.182814
C228     C     -0.343717    -0.077975     0.104839
C229     C      0.343717    -0.234258     0.448557
C230     C     -0.182814    -0.104839     0.051443
C231     C     -0.317186    -0.265742     0.077975
C232     C      0.156283    -0.395161     0.422025
C233     C     -0.234258     0.448557     0.343717
C234     C      0.448557     0.343717    -0.234258
C235     C     -0.395161     0.422025     0.156283
C236     C      0.051443    -0.182814    -0.104839
C237     C     -0.104839     0.051443    -0.182814
C238     C      0.077975    -0.317186    -0.265742
C239     C     -0.265742     0.077975    -0.317186
C240     C      0.422025     0.156283    -0.395161
C241     C      0.174241    -0.216325    -0.098943
C242     C      0.382619     0.273185    -0.401057
C243     C      0.325759     0.226815    -0.390566
C244     C      0.117381    -0.283675    -0.109434
C245     C     -0.098943     0.174241    -0.216325
C246     C     -0.216325    -0.098943     0.174241
C247     C     -0.109434     0.117381    -0.283675
C248     C      0.273185    -0.401057     0.382619
C249     C     -0.401057     0.382619     0.273185
C250     C      0.226815    -0.390566     0.325759
C251     C     -0.390566     0.325759     0.226815
C252     C     -0.283675    -0.109434     0.117381
C253     C      0.283675    -0.325759     0.401057
C254     C     -0.226815    -0.117381     0.098943
C255     C     -0.273185    -0.174241     0.109434
C256     C      0.216325    -0.382619     0.390566
C257     C     -0.325759     0.401057     0.283675
C258     C      0.401057     0.283675    -0.325759
C259     C     -0.382619     0.390566     0.216325
C260     C      0.098943    -0.226815    -0.117381
C261     C     -0.117381     0.098943    -0.226815
C262     C      0.109434    -0.273185    -0.174241
C263     C     -0.174241     0.109434    -0.273185
C264     C      0.390566     0.216325    -0.382619
C265     C      0.190342    -0.171615    -0.084206
C266     C      0.412591     0.274548    -0.415794
C267     C      0.309658     0.225452    -0.361957
C268     C      0.087409    -0.328385    -0.138043
C269     C     -0.084206     0.190342    -0.171615
C270     C     -0.171615    -0.084206     0.190342
C271     C     -0.138043     0.087409    -0.328385
C272     C      0.274548    -0.415794     0.412591
C273     C     -0.415794     0.412591     0.274548
C274     C      0.225452    -0.361957     0.309658
C275     C     -0.361957     0.309658     0.225452
C276     C     -0.328385    -0.138043     0.087409
C277     C      0.328385    -0.309658     0.415794
C278     C     -0.225452    -0.087409     0.084206
C279     C     -0.274548    -0.190342     0.138043
C280     C      0.171615    -0.412591     0.361957
C281     C     -0.309658     0.415794     0.328385
C282     C      0.415794     0.328385    -0.309658
C283     C     -0.412591     0.361957     0.171615
C284     C      0.084206    -0.225452    -0.087409
C285     C     -0.087409     0.084206    -0.225452
C286     C      0.138043    -0.274548    -0.190342
C287     C     -0.190342     0.138043    -0.274548
C288     C      0.361957     0.171615    -0.412591
C289     C      0.406130    -0.062779     0.019969
C290     C      0.417253     0.386162     0.480031
C291     C      0.093870     0.113838    -0.468909
C292     C      0.082747    -0.437221    -0.031091
C293     C      0.019969     0.406130    -0.062779
C294     C     -0.062779     0.019969     0.406130
C295     C     -0.031091     0.082747    -0.437221
C296     C      0.386162     0.480031     0.417253
C297     C      0.480031     0.417253     0.386162
C298     C      0.113838    -0.468909     0.093870
C299     C     -0.468909     0.093870     0.113838
C300     C     -0.437221    -0.031091     0.082747
C301     C      0.437221    -0.093870    -0.480031
C302     C     -0.113838    -0.082747    -0.019969
C303     C     -0.386162    -0.406130     0.031091
C304     C      0.062779    -0.417253     0.468909
C305     C     -0.093870    -0.480031     0.437221
C306     C     -0.480031     0.437221    -0.093870
C307     C     -0.417253     0.468909     0.062779
C308     C     -0.019969    -0.113838    -0.082747
C309     C     -0.082747    -0.019969    -0.113838
C310     C      0.031091    -0.386162    -0.406130
C311     C     -0.406130     0.031091    -0.386162
C312     C      0.468909     0.062779    -0.417253
C313     C      0.331113    -0.082183     0.010057
C314     C      0.407760     0.321055     0.489943
C315     C      0.168887     0.178945    -0.413295
C316     C      0.092240    -0.417817    -0.086705
C317     C      0.010057     0.331113    -0.082183
C318     C     -0.082183     0.010057     0.331113
C319     C     -0.086705     0.092240    -0.417817
C320     C      0.321055     0.489943     0.407760
C321     C      0.489943     0.407760     0.321055
C322     C      0.178945    -0.413295     0.168887
C323     C     -0.413295     0.168887     0.178945
C324     C     -0.417817    -0.086705     0.092240
C325     C      0.417817    -0.168887    -0.489943
C326     C     -0.178945    -0.092240    -0.010057
C327     C     -0.321055    -0.331113     0.086705
C328     C      0.082183    -0.407760     0.413295
C329     C     -0.168887    -0.489943     0.417817
C330     C     -0.489943     0.417817    -0.168887
C331     C     -0.407760     0.413295     0.082183
C332     C     -0.010057    -0.178945    -0.092240
C333     C     -0.092240    -0.010057    -0.178945
C334     C      0.086705    -0.321055    -0.331113
C335     C     -0.331113     0.086705    -0.321055
C336     C      0.413295     0.082183    -0.407760
C337     C      0.249662    -0.201212    -0.066473
C338     C      0.365261     0.316135    -0.433527
C339     C      0.250338     0.183865    -0.450874
C340     C      0.134739    -0.298788    -0.049126
C341     C     -0.066473     0.249662    -0.201212
C342     C     -0.201212    -0.066473     0.249662
C343     C     -0.049126     0.134739    -0.298788
C344     C      0.316135    -0.433527     0.365261
C345     C     -0.433527     0.365261     0.316135
C346     C      0.183865    -0.450874     0.250338
C347     C     -0.450874     0.250338     0.183865
C348     C     -0.298788    -0.049126     0.134739
C349     C      0.298788    -0.250338     0.433527
C350     C     -0.183865    -0.134739     0.066473
C351     C     -0.316135    -0.249662     0.049126
C352     C      0.201212    -0.365261     0.450874
C353     C     -0.250338     0.433527     0.298788
C354     C      0.433527     0.298788    -0.250338
C355     C     -0.365261     0.450874     0.201212
C356     C      0.066473    -0.183865    -0.134739
C357     C     -0.134739     0.066473    -0.183865
C358     C      0.049126    -0.316135    -0.249662
C359     C     -0.249662     0.049126    -0.316135
C360     C      0.450874     0.201212    -0.365261
C361     C      0.313145    -0.124855    -0.026330
C362     C      0.401475     0.339475    -0.473670
C363     C      0.186855     0.160525    -0.438000
C364     C      0.098525    -0.375145    -0.062000
C365     C     -0.026330     0.313145    -0.124855
C366     C     -0.124855    -0.026330     0.313145
C367     C     -0.062000     0.098525    -0.375145
C368     C      0.339475    -0.473670     0.401475
C369     C     -0.473670     0.401475     0.339475
C370     C      0.160525    -0.438000     0.186855
C371     C     -0.438000     0.186855     0.160525
C372     C     -0.375145    -0.062000     0.098525
C373     C      0.375145    -0.186855     0.473670
C374     C     -0.160525    -0.098525     0.026330
C375     C     -0.339475    -0.313145     0.062000
C376     C      0.124855    -0.401475     0.438000
C377     C     -0.186855     0.473670     0.375145
C378     C      0.473670     0.375145    -0.186855
C379     C     -0.401475     0.438000     0.124855
C380     C      0.026330    -0.160525    -0.098525
C381     C     -0.098525     0.026330    -0.160525
C382     C      0.062000    -0.339475    -0.313145
C383     C     -0.313145     0.062000    -0.339475
C384     C      0.438000     0.124855    -0.401475
C385     C      0.235216    -0.142177    -0.061175
C386     C      0.418998     0.296391    -0.438825
C387     C      0.264784     0.203609    -0.377393
C388     C      0.081002    -0.357823    -0.122607
C389     C     -0.061175     0.235216    -0.142177
C390     C     -0.142177    -0.061175     0.235216
C391     C     -0.122607     0.081002    -0.357823
C392     C      0.296391    -0.438825     0.418998
C393     C     -0.438825     0.418998     0.296391
C394     C      0.203609    -0.377393     0.264784
C395     C     -0.377393     0.264784     0.203609
C396     C     -0.357823    -0.122607     0.081002
C397     C      0.357823    -0.264784     0.438825
C398     C     -0.203609    -0.081002     0.061175
C399     C     -0.296391    -0.235216     0.122607
C400     C      0.142177    -0.418998     0.377393
C401     C     -0.264784     0.438825     0.357823
C402     C      0.438825     0.357823    -0.264784
C403     C     -0.418998     0.377393     0.142177
C404     C      0.061175    -0.203609    -0.081002
C405     C     -0.081002     0.061175    -0.203609
C406     C      0.122607    -0.296391    -0.235216
C407     C     -0.235216     0.122607    -0.296391
C408     C      0.377393     0.142177    -0.418998
C409     C      0.387549    -0.104808    -0.013611
C410     C      0.408803     0.401160    -0.486389
C411     C      0.112451     0.098840    -0.492357
C412     C      0.091197    -0.395192    -0.007643
C413     C     -0.013611     0.387549    -0.104808
C414     C     -0.104808    -0.013611     0.387549
C415     C     -0.007643     0.091197    -0.395192
C416     C      0.401160    -0.486389     0.408803
C417     C     -0.486389     0.408803     0.401160
C418     C      0.098840    -0.492357     0.112451
C419     C     -0.492357     0.112451     0.098840
C420     C     -0.395192    -0.007643     0.091197
C421     C      0.395192    -0.112451     0.486389
C422     C     -0.098840    -0.091197     0.013611
C423     C     -0.401160    -0.387549     0.007643
C424     C      0.104808    -0.408803     0.492357
C425     C     -0.112451     0.486389     0.395192
C426     C      0.486389     0.395192    -0.112451
C427     C     -0.408803     0.492357     0.104808
C428     C      0.013611    -0.098840    -0.091197
C429     C     -0.091197     0.013611    -0.098840
C430     C      0.007643    -0.401160    -0.387549
C431     C     -0.387549     0.007643    -0.401160
C432     C      0.492357     0.104808    -0.408803
C433     C      0.377491    -0.050947     0.032431
C434     C      0.416621     0.345060     0.467569
C435     C      0.122509     0.154940    -0.428439
C436     C      0.083379    -0.449053    -0.071561
C437     C      0.032431     0.377491    -0.050947
C438     C     -0.050947     0.032431     0.377491
C439     C     -0.071561     0.083379    -0.449053
C440     C      0.345060     0.467569     0.416621
C441     C      0.467569     0.416621     0.345060
C442     C      0.154940    -0.428439     0.122509
C443     C     -0.428439     0.122509     0.154940
C444     C     -0.449053    -0.071561     0.083379
C445     C      0.449053    -0.122509    -0.467569
C446     C     -0.154940    -0.083379    -0.032431
C447     C     -0.345060    -0.377491     0.071561
C448     C      0.050947    -0.416621     0.428439
C449     C     -0.122509    -0.467569     0.449053
C450     C     -0.467569     0.449053    -0.122509
C451     C     -0.416621     0.428439     0.050947
C452     C     -0.032431    -0.154940    -0.083379
C453     C     -0.083379    -0.032431    -0.154940
C454     C      0.071561    -0.345060    -0.377491
C455     C     -0.377491     0.071561    -0.345060
C456     C      0.428439     0.050947    -0.416621
B1       B      0.455336    -0.029930     0.042954
B2       B      0.427116     0.412382     0.457046
B3       B      0.044664     0.087618    -0.485266
B4       B      0.072884    -0.470070    -0.014734
B5       B      0.042954     0.455336    -0.029930
B6       B     -0.029930     0.042954     0.455336
B7       B     -0.014734     0.072884    -0.470070
B8       B      0.412382     0.457046     0.427116
B9       B      0.457046     0.427116     0.412382
B10      B      0.087618    -0.485266     0.044664
B11      B     -0.485266     0.044664     0.087618
B12      B     -0.470070    -0.014734     0.072884
B13      B      0.470070    -0.044664    -0.457046
B14      B     -0.087618    -0.072884    -0.042954
B15      B     -0.412382    -0.455336     0.014734
B16      B      0.029930    -0.427116     0.485266
B17      B     -0.044664    -0.457046     0.470070
B18      B     -0.457046     0.470070    -0.044664
B19      B     -0.427116     0.485266     0.029930
B20      B     -0.042954    -0.087618    -0.072884
B21      B     -0.072884    -0.042954    -0.087618
B22      B      0.014734    -0.412382    -0.455336
B23      B     -0.455336     0.014734    -0.412382
B24      B      0.485266     0.029930    -0.427116
C457     C      0.341836    -0.135111    -0.036814
C458     C      0.401702     0.378650    -0.463186
C459     C      0.158164     0.121350    -0.476947
C460     C      0.098298    -0.364889    -0.023053
C461     C     -0.036814     0.341836    -0.135111
C462     C     -0.135111    -0.036814     0.341836
C463     C     -0.023053     0.098298    -0.364889
C464     C      0.378650    -0.463186     0.401702
C465     C     -0.463186     0.401702     0.378650
C466     C      0.121350    -0.476947     0.158164
C467     C     -0.476947     0.158164     0.121350
C468     C     -0.364889    -0.023053     0.098298
C469     C      0.364889    -0.158164     0.463186
C470     C     -0.121350    -0.098298     0.036814
C471     C     -0.378650    -0.341836     0.023053
C472     C      0.135111    -0.401702     0.476947
C473     C     -0.158164     0.463186     0.364889
C474     C      0.463186     0.364889    -0.158164
C475     C     -0.401702     0.476947     0.135111
C476     C      0.036814    -0.121350    -0.098298
C477     C     -0.098298     0.036814    -0.121350
C478     C      0.023053    -0.378650    -0.341836
C479     C     -0.341836     0.023053    -0.378650
C480     C      0.476947     0.135111    -0.401702
C481     C      0.250000    -0.375000     0.375000
C482     C     -0.250000    -0.125000     0.125000
C483     C      0.375000     0.250000    -0.375000
C484     C     -0.375000     0.375000     0.250000
C485     C      0.125000    -0.250000    -0.125000
C486     C     -0.125000     0.125000    -0.250000
